


 21 20  0  0  0  0  0  0  0  0999 V2000
    2.9167   -1.0434   -4.0228 C   0  0  0  0  0  0  0  0  0  0  0  0
    3.0217    0.4095   -4.4056 C   0  0  0  0  0  0  0  0  0  0  0  0
    2.2023    0.9135   -5.2940 C   0  0  0  0  0  0  0  0  0  0  0  0
    1.0568    0.0861   -5.8175 C   0  0  0  0  0  0  0  0  0  0  0  0
    0.9242    0.2948   -7.3266 C   0  0  0  0  0  0  0  0  0  0  0  0
    2.3035    0.5705   -7.9269 C   0  0  0  0  0  0  0  0  0  0  0  0
    2.7675   -0.6509   -8.7232 C   0  0  0  0  0  0  0  0  0  0  0  0
    4.2665   -0.8624   -8.5072 C   0  0  0  0  0  0  0  0  0  0  0  0
    4.8551    0.3528   -7.7881 C   0  0  0  0  0  0  0  0  0  0  0  0
    6.1061   -0.0684   -7.0145 C   0  0  0  0  0  0  0  0  0  0  0  0
    6.3835    0.9445   -5.9021 C   0  0  0  0  0  0  0  0  0  0  0  0
    4.2540   -1.7391   -4.2859 C   0  0  0  0  0  0  0  0  0  0  0  0
    4.0804   -2.7756   -5.3970 C   0  0  0  0  0  0  0  0  0  0  0  0
    2.6285   -3.2550   -5.4254 C   0  0  0  0  0  0  0  0  0  0  0  0
    2.2862   -3.7649   -6.8250 C   0  0  0  0  0  0  0  0  0  0  0  0
    0.8294   -3.4292   -7.1500 C   0  0  0  0  0  0  0  0  0  0  0  0
   -0.0042   -3.4763   -5.8679 C   0  0  0  0  0  0  0  0  0  0  0  0
   -0.7070   -4.8059   -5.7742 C   0  0  0  0  0  0  0  0  0  0  0  0
   -0.4411   -5.5680   -4.8758 O   0  0  0  0  0  0  0  0  0  0  0  0
   -1.6273   -5.1451   -6.6912 O   0  0  0  0  0  0  0  0  0  0  0  0
   -1.8339   -4.5542   -7.3884 H   0  0  0  0  0  0  0  0  0  0  0  0
 18 19  2  0  0  0
 18 20  1  0  0  0
 18 17  1  0  0  0
 17 16  1  0  0  0
 16 15  1  0  0  0
 15 14  1  0  0  0
 14 13  1  0  0  0
 13 12  1  0  0  0
 12  1  1  0  0  0
  1  2  1  0  0  0
  2  3  2  0  0  0
  3  4  1  0  0  0
  4  5  1  0  0  0
  5  6  1  0  0  0
  6  7  1  0  0  0
  7  8  1  0  0  0
  8  9  1  0  0  0
  9 10  1  0  0  0
 10 11  1  0  0  0
 20 21  1  0  0  0
M  END
> <minimizedAffinity>
0.00000

> <CNNscore>
0.7257738113

> <CNNaffinity>
3.8684399128

> <CNN_VS>
2.8076124191

> <CNNaffinity_variance>
0.3072609305

$$$$



 21 20  0  0  0  0  0  0  0  0999 V2000
    3.3404   -3.0205   -0.1378 C   0  0  0  0  0  0  0  0  0  0  0  0
    3.4614   -2.9312    1.3609 C   0  0  0  0  0  0  0  0  0  0  0  0
    4.1253   -3.8475    2.0200 C   0  0  0  0  0  0  0  0  0  0  0  0
    4.8989   -4.9022    1.2716 C   0  0  0  0  0  0  0  0  0  0  0  0
    4.3684   -6.2865    1.6465 C   0  0  0  0  0  0  0  0  0  0  0  0
    3.8499   -6.9915    0.3923 C   0  0  0  0  0  0  0  0  0  0  0  0
    4.5828   -6.4510   -0.8374 C   0  0  0  0  0  0  0  0  0  0  0  0
    3.6736   -6.5582   -2.0622 C   0  0  0  0  0  0  0  0  0  0  0  0
    2.3986   -7.3158   -1.6869 C   0  0  0  0  0  0  0  0  0  0  0  0
    1.2243   -6.7756   -2.5054 C   0  0  0  0  0  0  0  0  0  0  0  0
    1.7402   -5.7681   -3.5346 C   0  0  0  0  0  0  0  0  0  0  0  0
    1.9970   -3.6544   -0.5050 C   0  0  0  0  0  0  0  0  0  0  0  0
    0.8668   -2.8955    0.1921 C   0  0  0  0  0  0  0  0  0  0  0  0
   -0.0188   -3.8838    0.9520 C   0  0  0  0  0  0  0  0  0  0  0  0
    0.5831   -5.2856    0.8582 C   0  0  0  0  0  0  0  0  0  0  0  0
    0.7433   -5.8689    2.2634 C   0  0  0  0  0  0  0  0  0  0  0  0
    0.7059   -4.7382    3.2935 C   0  0  0  0  0  0  0  0  0  0  0  0
    1.3955   -5.1860    4.5562 C   0  0  0  0  0  0  0  0  0  0  0  0
    2.3529   -5.9197    4.4943 O   0  0  0  0  0  0  0  0  0  0  0  0
    0.9443   -4.7716    5.7509 O   0  0  0  0  0  0  0  0  0  0  0  0
    0.2015   -4.2024    5.7995 H   0  0  0  0  0  0  0  0  0  0  0  0
 18 19  2  0  0  0
 18 20  1  0  0  0
 18 17  1  0  0  0
 17 16  1  0  0  0
 16 15  1  0  0  0
 15 14  1  0  0  0
 14 13  1  0  0  0
 13 12  1  0  0  0
 12  1  1  0  0  0
  1  2  1  0  0  0
  2  3  2  0  0  0
  3  4  1  0  0  0
  4  5  1  0  0  0
  5  6  1  0  0  0
  6  7  1  0  0  0
  7  8  1  0  0  0
  8  9  1  0  0  0
  9 10  1  0  0  0
 10 11  1  0  0  0
 20 21  1  0  0  0
M  END
> <minimizedAffinity>
0.00000

> <CNNscore>
0.7247820497

> <CNNaffinity>
3.7603828907

> <CNN_VS>
2.7254579067

> <CNNaffinity_variance>
0.2949771285

$$$$



 21 20  0  0  0  0  0  0  0  0999 V2000
    4.2544   -2.9110   -2.6210 C   0  0  0  0  0  0  0  0  0  0  0  0
    5.3149   -2.2186   -1.8058 C   0  0  0  0  0  0  0  0  0  0  0  0
    6.3645   -1.7054   -2.3971 C   0  0  0  0  0  0  0  0  0  0  0  0
    6.4383   -1.6674   -3.9018 C   0  0  0  0  0  0  0  0  0  0  0  0
    6.3104   -0.2215   -4.3827 C   0  0  0  0  0  0  0  0  0  0  0  0
    4.9504   -0.0251   -5.0540 C   0  0  0  0  0  0  0  0  0  0  0  0
    4.6061   -1.2645   -5.8827 C   0  0  0  0  0  0  0  0  0  0  0  0
    3.0884   -1.3707   -6.0366 C   0  0  0  0  0  0  0  0  0  0  0  0
    2.4420   -0.0376   -5.6553 C   0  0  0  0  0  0  0  0  0  0  0  0
    0.9599   -0.2589   -5.3465 C   0  0  0  0  0  0  0  0  0  0  0  0
    0.6553   -1.7581   -5.3547 C   0  0  0  0  0  0  0  0  0  0  0  0
    2.9164   -2.1921   -2.4350 C   0  0  0  0  0  0  0  0  0  0  0  0
    3.0959   -1.0217   -1.4669 C   0  0  0  0  0  0  0  0  0  0  0  0
    2.1639    0.1216   -1.8702 C   0  0  0  0  0  0  0  0  0  0  0  0
    2.9936    1.3514   -2.2379 C   0  0  0  0  0  0  0  0  0  0  0  0
    4.3261    1.3129   -1.4874 C   0  0  0  0  0  0  0  0  0  0  0  0
    5.2470    2.4107   -2.0240 C   0  0  0  0  0  0  0  0  0  0  0  0
    4.7059    3.7593   -1.6256 C   0  0  0  0  0  0  0  0  0  0  0  0
    4.5089    4.6039   -2.4662 O   0  0  0  0  0  0  0  0  0  0  0  0
    4.4448    4.0237   -0.3353 O   0  0  0  0  0  0  0  0  0  0  0  0
    4.5974    3.3688    0.3173 H   0  0  0  0  0  0  0  0  0  0  0  0
 18 19  2  0  0  0
 18 20  1  0  0  0
 18 17  1  0  0  0
 17 16  1  0  0  0
 16 15  1  0  0  0
 15 14  1  0  0  0
 14 13  1  0  0  0
 13 12  1  0  0  0
 12  1  1  0  0  0
  1  2  1  0  0  0
  2  3  2  0  0  0
  3  4  1  0  0  0
  4  5  1  0  0  0
  5  6  1  0  0  0
  6  7  1  0  0  0
  7  8  1  0  0  0
  8  9  1  0  0  0
  9 10  1  0  0  0
 10 11  1  0  0  0
 20 21  1  0  0  0
M  END
> <minimizedAffinity>
0.00000

> <CNNscore>
0.7214237452

> <CNNaffinity>
3.8249065876

> <CNN_VS>
2.7593784332

> <CNNaffinity_variance>
0.2976825833

$$$$



 21 20  0  0  0  0  0  0  0  0999 V2000
   -6.3438    0.1848   -2.3487 C   0  0  0  0  0  0  0  0  0  0  0  0
   -5.6135    0.4935   -1.0681 C   0  0  0  0  0  0  0  0  0  0  0  0
   -4.7507   -0.3640   -0.5832 C   0  0  0  0  0  0  0  0  0  0  0  0
   -4.3712   -1.5844   -1.3818 C   0  0  0  0  0  0  0  0  0  0  0  0
   -4.3491   -2.8078   -0.4647 C   0  0  0  0  0  0  0  0  0  0  0  0
   -5.0787   -3.9679   -1.1433 C   0  0  0  0  0  0  0  0  0  0  0  0
   -5.5192   -3.5438   -2.5460 C   0  0  0  0  0  0  0  0  0  0  0  0
   -6.6914   -4.4151   -2.9987 C   0  0  0  0  0  0  0  0  0  0  0  0
   -7.1510   -5.2969   -1.8361 C   0  0  0  0  0  0  0  0  0  0  0  0
   -8.6798   -5.3498   -1.8090 C   0  0  0  0  0  0  0  0  0  0  0  0
   -9.2343   -4.7467   -3.1010 C   0  0  0  0  0  0  0  0  0  0  0  0
   -7.8519    0.1852   -2.0897 C   0  0  0  0  0  0  0  0  0  0  0  0
   -8.3783   -1.2500   -2.1364 C   0  0  0  0  0  0  0  0  0  0  0  0
   -9.0516   -1.5902   -0.8062 C   0  0  0  0  0  0  0  0  0  0  0  0
   -8.0283   -2.2209    0.1377 C   0  0  0  0  0  0  0  0  0  0  0  0
   -7.8400   -1.3231    1.3621 C   0  0  0  0  0  0  0  0  0  0  0  0
   -6.7180   -1.8831    2.2388 C   0  0  0  0  0  0  0  0  0  0  0  0
   -7.3154   -2.6056    3.4185 C   0  0  0  0  0  0  0  0  0  0  0  0
   -7.3916   -3.8109    3.4137 O   0  0  0  0  0  0  0  0  0  0  0  0
   -7.7657   -1.9093    4.4746 O   0  0  0  0  0  0  0  0  0  0  0  0
   -7.7068   -0.9742    4.4788 H   0  0  0  0  0  0  0  0  0  0  0  0
 18 19  2  0  0  0
 18 20  1  0  0  0
 18 17  1  0  0  0
 17 16  1  0  0  0
 16 15  1  0  0  0
 15 14  1  0  0  0
 14 13  1  0  0  0
 13 12  1  0  0  0
 12  1  1  0  0  0
  1  2  1  0  0  0
  2  3  2  0  0  0
  3  4  1  0  0  0
  4  5  1  0  0  0
  5  6  1  0  0  0
  6  7  1  0  0  0
  7  8  1  0  0  0
  8  9  1  0  0  0
  9 10  1  0  0  0
 10 11  1  0  0  0
 20 21  1  0  0  0
M  END
> <minimizedAffinity>
0.00000

> <CNNscore>
0.7202285528

> <CNNaffinity>
3.8231377602

> <CNN_VS>
2.7535328865

> <CNNaffinity_variance>
0.2815433145

$$$$



 21 20  0  0  0  0  0  0  0  0999 V2000
   -0.1048   -1.1653    0.6294 C   0  0  0  0  0  0  0  0  0  0  0  0
   -0.9428    0.0376    0.2838 C   0  0  0  0  0  0  0  0  0  0  0  0
   -0.9683    1.0709    1.0877 C   0  0  0  0  0  0  0  0  0  0  0  0
   -0.0427    1.1242    2.2758 C   0  0  0  0  0  0  0  0  0  0  0  0
   -0.8182    1.5965    3.5062 C   0  0  0  0  0  0  0  0  0  0  0  0
   -2.2863    1.1898    3.3715 C   0  0  0  0  0  0  0  0  0  0  0  0
   -2.5666   -0.0170    4.2695 C   0  0  0  0  0  0  0  0  0  0  0  0
   -3.3571   -1.0649    3.4851 C   0  0  0  0  0  0  0  0  0  0  0  0
   -4.0875   -0.3892    2.3232 C   0  0  0  0  0  0  0  0  0  0  0  0
   -4.4587   -1.4391    1.2740 C   0  0  0  0  0  0  0  0  0  0  0  0
   -4.5110   -2.8200    1.9303 C   0  0  0  0  0  0  0  0  0  0  0  0
   -0.9826   -2.4186    0.6222 C   0  0  0  0  0  0  0  0  0  0  0  0
   -0.7857   -3.1875    1.9296 C   0  0  0  0  0  0  0  0  0  0  0  0
    0.3741   -2.5721    2.7137 C   0  0  0  0  0  0  0  0  0  0  0  0
    0.0305   -2.5530    4.2029 C   0  0  0  0  0  0  0  0  0  0  0  0
    0.8588   -1.4755    4.9054 C   0  0  0  0  0  0  0  0  0  0  0  0
    2.1229   -1.1909    4.0917 C   0  0  0  0  0  0  0  0  0  0  0  0
    3.3365   -1.5729    4.8990 C   0  0  0  0  0  0  0  0  0  0  0  0
    3.3250   -2.5778    5.5688 O   0  0  0  0  0  0  0  0  0  0  0  0
    4.4304   -0.7946    4.8761 O   0  0  0  0  0  0  0  0  0  0  0  0
    4.4398   -0.0149    4.3566 H   0  0  0  0  0  0  0  0  0  0  0  0
 18 19  2  0  0  0
 18 20  1  0  0  0
 18 17  1  0  0  0
 17 16  1  0  0  0
 16 15  1  0  0  0
 15 14  1  0  0  0
 14 13  1  0  0  0
 13 12  1  0  0  0
 12  1  1  0  0  0
  1  2  1  0  0  0
  2  3  2  0  0  0
  3  4  1  0  0  0
  4  5  1  0  0  0
  5  6  1  0  0  0
  6  7  1  0  0  0
  7  8  1  0  0  0
  8  9  1  0  0  0
  9 10  1  0  0  0
 10 11  1  0  0  0
 20 21  1  0  0  0
M  END
> <minimizedAffinity>
0.00000

> <CNNscore>
0.7166811824

> <CNNaffinity>
3.8119673729

> <CNN_VS>
2.7319653034

> <CNNaffinity_variance>
0.3013455868

$$$$



 21 20  0  0  0  0  0  0  0  0999 V2000
   -0.5923    1.9596    4.7021 C   0  0  0  0  0  0  0  0  0  0  0  0
   -0.8725    0.5408    5.1227 C   0  0  0  0  0  0  0  0  0  0  0  0
   -1.2727   -0.3377    4.2379 C   0  0  0  0  0  0  0  0  0  0  0  0
   -1.3030    0.0257    2.7757 C   0  0  0  0  0  0  0  0  0  0  0  0
   -2.7404   -0.0532    2.2598 C   0  0  0  0  0  0  0  0  0  0  0  0
   -3.1233    1.2771    1.6098 C   0  0  0  0  0  0  0  0  0  0  0  0
   -4.3475    1.8590    2.3198 C   0  0  0  0  0  0  0  0  0  0  0  0
   -4.8007    0.9026    3.4234 C   0  0  0  0  0  0  0  0  0  0  0  0
   -4.9261    1.6675    4.7423 C   0  0  0  0  0  0  0  0  0  0  0  0
   -4.6126    0.7284    5.9088 C   0  0  0  0  0  0  0  0  0  0  0  0
   -4.7152   -0.7232    5.4370 C   0  0  0  0  0  0  0  0  0  0  0  0
   -1.5969    2.8992    5.3726 C   0  0  0  0  0  0  0  0  0  0  0  0
   -2.0078    3.9944    4.3874 C   0  0  0  0  0  0  0  0  0  0  0  0
   -1.0961    3.9457    3.1607 C   0  0  0  0  0  0  0  0  0  0  0  0
   -1.7363    4.7317    2.0169 C   0  0  0  0  0  0  0  0  0  0  0  0
   -3.0542    5.3459    2.4927 C   0  0  0  0  0  0  0  0  0  0  0  0
   -3.0401    6.8531    2.2296 C   0  0  0  0  0  0  0  0  0  0  0  0
   -2.8518    7.5884    3.5312 C   0  0  0  0  0  0  0  0  0  0  0  0
   -3.7774    8.1844    4.0281 O   0  0  0  0  0  0  0  0  0  0  0  0
   -1.6541    7.5835    4.1381 O   0  0  0  0  0  0  0  0  0  0  0  0
   -0.9357    7.1213    3.7530 H   0  0  0  0  0  0  0  0  0  0  0  0
 18 19  2  0  0  0
 18 20  1  0  0  0
 18 17  1  0  0  0
 17 16  1  0  0  0
 16 15  1  0  0  0
 15 14  1  0  0  0
 14 13  1  0  0  0
 13 12  1  0  0  0
 12  1  1  0  0  0
  1  2  1  0  0  0
  2  3  2  0  0  0
  3  4  1  0  0  0
  4  5  1  0  0  0
  5  6  1  0  0  0
  6  7  1  0  0  0
  7  8  1  0  0  0
  8  9  1  0  0  0
  9 10  1  0  0  0
 10 11  1  0  0  0
 20 21  1  0  0  0
M  END
> <minimizedAffinity>
0.00000

> <CNNscore>
0.7155250311

> <CNNaffinity>
3.8049991131

> <CNN_VS>
2.7225720882

> <CNNaffinity_variance>
0.2943721414

$$$$



 21 20  0  0  0  0  0  0  0  0999 V2000
    6.2861    1.3984   -4.2973 C   0  0  0  0  0  0  0  0  0  0  0  0
    6.2077    1.0824   -2.8267 C   0  0  0  0  0  0  0  0  0  0  0  0
    5.1525    0.4770   -2.3422 C   0  0  0  0  0  0  0  0  0  0  0  0
    4.0884   -0.0434   -3.2738 C   0  0  0  0  0  0  0  0  0  0  0  0
    3.6112   -1.4131   -2.7892 C   0  0  0  0  0  0  0  0  0  0  0  0
    4.8065   -2.3607   -2.6794 C   0  0  0  0  0  0  0  0  0  0  0  0
    5.2247   -2.8198   -4.0779 C   0  0  0  0  0  0  0  0  0  0  0  0
    6.7490   -2.9183   -4.1488 C   0  0  0  0  0  0  0  0  0  0  0  0
    7.3497   -2.5208   -2.7992 C   0  0  0  0  0  0  0  0  0  0  0  0
    8.7998   -2.0750   -2.9974 C   0  0  0  0  0  0  0  0  0  0  0  0
    9.1546   -1.0138   -1.9541 C   0  0  0  0  0  0  0  0  0  0  0  0
    7.5731    0.8092   -4.8786 C   0  0  0  0  0  0  0  0  0  0  0  0
    7.2504    0.0478   -6.1652 C   0  0  0  0  0  0  0  0  0  0  0  0
    5.8157    0.3570   -6.5950 C   0  0  0  0  0  0  0  0  0  0  0  0
    5.1671   -0.9077   -7.1570 C   0  0  0  0  0  0  0  0  0  0  0  0
    3.6589   -0.8652   -6.9037 C   0  0  0  0  0  0  0  0  0  0  0  0
    3.1997    0.5902   -6.7944 C   0  0  0  0  0  0  0  0  0  0  0  0
    2.3308    0.9329   -7.9768 C   0  0  0  0  0  0  0  0  0  0  0  0
    2.0945    0.0967   -8.8157 O   0  0  0  0  0  0  0  0  0  0  0  0
    1.8209    2.1689   -8.0996 O   0  0  0  0  0  0  0  0  0  0  0  0
    2.0040    2.8180   -7.4491 H   0  0  0  0  0  0  0  0  0  0  0  0
 18 19  2  0  0  0
 18 20  1  0  0  0
 18 17  1  0  0  0
 17 16  1  0  0  0
 16 15  1  0  0  0
 15 14  1  0  0  0
 14 13  1  0  0  0
 13 12  1  0  0  0
 12  1  1  0  0  0
  1  2  1  0  0  0
  2  3  2  0  0  0
  3  4  1  0  0  0
  4  5  1  0  0  0
  5  6  1  0  0  0
  6  7  1  0  0  0
  7  8  1  0  0  0
  8  9  1  0  0  0
  9 10  1  0  0  0
 10 11  1  0  0  0
 20 21  1  0  0  0
M  END
> <minimizedAffinity>
0.00000

> <CNNscore>
0.7154687047

> <CNNaffinity>
3.8369059563

> <CNN_VS>
2.7451860905

> <CNNaffinity_variance>
0.3112754226

$$$$



 21 20  0  0  0  0  0  0  0  0999 V2000
   -3.4578    2.3626    6.0918 C   0  0  0  0  0  0  0  0  0  0  0  0
   -3.5599    3.8143    5.7034 C   0  0  0  0  0  0  0  0  0  0  0  0
   -4.7164    4.4263    5.7552 C   0  0  0  0  0  0  0  0  0  0  0  0
   -5.9123    3.7283    6.3499 C   0  0  0  0  0  0  0  0  0  0  0  0
   -6.7340    4.7282    7.1643 C   0  0  0  0  0  0  0  0  0  0  0  0
   -5.8122    5.4907    8.1170 C   0  0  0  0  0  0  0  0  0  0  0  0
   -5.5298    4.6317    9.3514 C   0  0  0  0  0  0  0  0  0  0  0  0
   -4.0353    4.6739    9.6723 C   0  0  0  0  0  0  0  0  0  0  0  0
   -3.3809    5.8249    8.9059 C   0  0  0  0  0  0  0  0  0  0  0  0
   -1.9086    5.4962    8.6507 C   0  0  0  0  0  0  0  0  0  0  0  0
   -1.3837    4.6001    9.7740 C   0  0  0  0  0  0  0  0  0  0  0  0
   -2.3025    2.1776    7.0779 C   0  0  0  0  0  0  0  0  0  0  0  0
   -2.8094    1.4587    8.3291 C   0  0  0  0  0  0  0  0  0  0  0  0
   -4.2071    0.8976    8.0643 C   0  0  0  0  0  0  0  0  0  0  0  0
   -5.0380    0.9708    9.3450 C   0  0  0  0  0  0  0  0  0  0  0  0
   -6.5202    1.0946    8.9871 C   0  0  0  0  0  0  0  0  0  0  0  0
   -6.7717    0.4521    7.6215 C   0  0  0  0  0  0  0  0  0  0  0  0
   -8.2388    0.5375    7.2886 C   0  0  0  0  0  0  0  0  0  0  0  0
   -9.0086   -0.2783    7.7364 O   0  0  0  0  0  0  0  0  0  0  0  0
   -8.6905    1.5194    6.4919 O   0  0  0  0  0  0  0  0  0  0  0  0
   -8.0937    2.1525    6.1442 H   0  0  0  0  0  0  0  0  0  0  0  0
 18 19  2  0  0  0
 18 20  1  0  0  0
 18 17  1  0  0  0
 17 16  1  0  0  0
 16 15  1  0  0  0
 15 14  1  0  0  0
 14 13  1  0  0  0
 13 12  1  0  0  0
 12  1  1  0  0  0
  1  2  1  0  0  0
  2  3  2  0  0  0
  3  4  1  0  0  0
  4  5  1  0  0  0
  5  6  1  0  0  0
  6  7  1  0  0  0
  7  8  1  0  0  0
  8  9  1  0  0  0
  9 10  1  0  0  0
 10 11  1  0  0  0
 20 21  1  0  0  0
M  END
> <minimizedAffinity>
0.00000

> <CNNscore>
0.7150264382

> <CNNaffinity>
3.7705121040

> <CNN_VS>
2.6960158348

> <CNNaffinity_variance>
0.2778203487

$$$$



 21 20  0  0  0  0  0  0  0  0999 V2000
    3.4888   -0.5688   -1.6230 C   0  0  0  0  0  0  0  0  0  0  0  0
    2.2276   -1.1431   -2.2132 C   0  0  0  0  0  0  0  0  0  0  0  0
    1.0902   -1.0170   -1.5768 C   0  0  0  0  0  0  0  0  0  0  0  0
    1.0115   -0.1654   -0.3359 C   0  0  0  0  0  0  0  0  0  0  0  0
    0.2201    1.1072   -0.6396 C   0  0  0  0  0  0  0  0  0  0  0  0
    1.1891    2.2616   -0.8984 C   0  0  0  0  0  0  0  0  0  0  0  0
    0.8361    2.9375   -2.2250 C   0  0  0  0  0  0  0  0  0  0  0  0
   -0.3698    2.2358   -2.8509 C   0  0  0  0  0  0  0  0  0  0  0  0
   -0.0602    1.8915   -4.3089 C   0  0  0  0  0  0  0  0  0  0  0  0
   -0.4510    0.4381   -4.5842 C   0  0  0  0  0  0  0  0  0  0  0  0
   -1.6691    0.0678   -3.7361 C   0  0  0  0  0  0  0  0  0  0  0  0
    4.0267    0.5319   -2.5399 C   0  0  0  0  0  0  0  0  0  0  0  0
    3.3632    0.4219   -3.9135 C   0  0  0  0  0  0  0  0  0  0  0  0
    3.5400    1.7376   -4.6725 C   0  0  0  0  0  0  0  0  0  0  0  0
    4.2483    2.7531   -3.7763 C   0  0  0  0  0  0  0  0  0  0  0  0
    3.7961    4.1666   -4.1477 C   0  0  0  0  0  0  0  0  0  0  0  0
    2.7683    4.0939   -5.2787 C   0  0  0  0  0  0  0  0  0  0  0  0
    1.9136    5.3347   -5.2613 C   0  0  0  0  0  0  0  0  0  0  0  0
    0.7254    5.2474   -5.0630 O   0  0  0  0  0  0  0  0  0  0  0  0
    2.4723    6.5379   -5.4688 O   0  0  0  0  0  0  0  0  0  0  0  0
    3.3940    6.6062   -5.6227 H   0  0  0  0  0  0  0  0  0  0  0  0
 18 19  2  0  0  0
 18 20  1  0  0  0
 18 17  1  0  0  0
 17 16  1  0  0  0
 16 15  1  0  0  0
 15 14  1  0  0  0
 14 13  1  0  0  0
 13 12  1  0  0  0
 12  1  1  0  0  0
  1  2  1  0  0  0
  2  3  2  0  0  0
  3  4  1  0  0  0
  4  5  1  0  0  0
  5  6  1  0  0  0
  6  7  1  0  0  0
  7  8  1  0  0  0
  8  9  1  0  0  0
  9 10  1  0  0  0
 10 11  1  0  0  0
 20 21  1  0  0  0
M  END
> <minimizedAffinity>
0.00000

> <CNNscore>
0.7146909237

> <CNNaffinity>
3.7122409344

> <CNN_VS>
2.6531050205

> <CNNaffinity_variance>
0.2853733301

$$$$
