


 25 25  0  0  0  0  0  0  0  0999 V2000
  -49.5984   56.7220   59.7495 C   0  0  0  0  0  0  0  0  0  0  0  0
  -49.5738   57.6044   58.4926 C   0  0  0  0  0  0  0  0  0  0  0  0
  -48.8247   56.9042   57.3672 C   0  0  0  0  0  0  0  0  0  0  0  0
  -47.9934   57.9297   56.5957 C   0  0  0  0  0  0  0  0  0  0  0  0
  -47.0571   58.6728   57.5484 C   0  0  0  0  0  0  0  0  0  0  0  0
  -45.5515   57.3797   59.3197 C   0  0  0  0  0  0  0  0  0  0  0  0
  -45.8777   57.7496   57.8595 C   0  0  0  0  0  0  0  0  0  0  0  0
  -46.2993   58.0056   60.5071 C   0  0  0  0  0  0  0  0  0  0  0  0
  -45.3118   58.9373   61.2248 C   0  0  0  0  0  0  0  0  0  0  0  0
  -45.7732   60.2410   61.9193 C   0  0  0  0  0  0  0  0  0  0  0  0
  -47.2562   60.6589   61.9601 C   0  0  0  0  0  0  0  0  0  0  0  0
  -48.9166   60.7437   60.0459 C   0  0  0  0  0  0  0  0  0  0  0  0
  -47.5954   61.2829   60.5996 C   0  0  0  0  0  0  0  0  0  0  0  0
  -50.4182   57.3353   60.9142 C   0  0  0  0  0  0  0  0  0  0  0  0
  -49.5568   57.6681   62.1554 C   0  0  0  0  0  0  0  0  0  0  0  0
  -51.7769   60.3588   63.4150 C   0  0  0  0  0  0  0  0  0  0  0  0
  -51.3979   60.4482   64.7610 C   0  0  0  0  0  0  0  0  0  0  0  0
  -51.1557   59.4360   62.5649 C   0  0  0  0  0  0  0  0  0  0  0  0
  -50.3966   59.6001   65.2336 C   0  0  0  0  0  0  0  0  0  0  0  0
  -49.7878   58.6782   64.3837 C   0  0  0  0  0  0  0  0  0  0  0  0
  -50.1746   58.5600   63.0426 C   0  0  0  0  0  0  0  0  0  0  0  0
  -49.9713   59.6256   66.5205 O   0  0  0  0  0  0  0  0  0  0  0  0
  -48.8183   57.8637   64.8921 O   0  0  0  0  0  0  0  0  0  0  0  0
  -50.3519   60.2291   67.1279 H   0  0  0  0  0  0  0  0  0  0  0  0
  -48.5614   57.9448   65.7895 H   0  0  0  0  0  0  0  0  0  0  0  0
 12 13  1  0  0  0
  9 10  2  0  0  0
  9  8  1  0  0  0
  6  7  2  0  0  0
  6  8  1  0  0  0
 10 11  1  0  0  0
  7  5  1  0  0  0
 16 17  2  0  0  0
 16 18  1  0  0  0
 17 19  1  0  0  0
 18 21  2  0  0  0
 13 11  1  0  0  0
  5  4  1  0  0  0
  4  3  1  0  0  0
  3  2  1  0  0  0
  2  1  1  0  0  0
  1 14  1  0  0  0
 14 15  1  0  0  0
 15 21  1  0  0  0
 19 20  2  0  0  0
 19 22  1  0  0  0
 20 21  1  0  0  0
 20 23  1  0  0  0
 22 24  1  0  0  0
 23 25  1  0  0  0
M  END
> <minimizedAffinity>
-8.99664

$$$$



 25 25  0  0  0  0  0  0  0  0999 V2000
  -49.9231   57.3617   59.5097 C   0  0  0  0  0  0  0  0  0  0  0  0
  -50.1370   58.7846   58.9724 C   0  0  0  0  0  0  0  0  0  0  0  0
  -48.8581   59.6000   59.1055 C   0  0  0  0  0  0  0  0  0  0  0  0
  -49.0961   60.7642   60.0677 C   0  0  0  0  0  0  0  0  0  0  0  0
  -47.7607   61.3289   60.5518 C   0  0  0  0  0  0  0  0  0  0  0  0
  -46.3104   59.5965   61.9560 C   0  0  0  0  0  0  0  0  0  0  0  0
  -47.4253   60.6583   61.8852 C   0  0  0  0  0  0  0  0  0  0  0  0
  -45.5889   59.0851   60.6996 C   0  0  0  0  0  0  0  0  0  0  0  0
  -46.0222   57.6269   60.4896 C   0  0  0  0  0  0  0  0  0  0  0  0
  -46.2785   57.0437   59.0792 C   0  0  0  0  0  0  0  0  0  0  0  0
  -46.0782   57.8850   57.8035 C   0  0  0  0  0  0  0  0  0  0  0  0
  -47.9942   57.1631   56.3080 C   0  0  0  0  0  0  0  0  0  0  0  0
  -46.5007   57.0176   56.6099 C   0  0  0  0  0  0  0  0  0  0  0  0
  -50.5327   57.1393   60.9181 C   0  0  0  0  0  0  0  0  0  0  0  0
  -49.5844   57.5616   62.0652 C   0  0  0  0  0  0  0  0  0  0  0  0
  -51.7463   60.2804   63.3652 C   0  0  0  0  0  0  0  0  0  0  0  0
  -51.3006   60.4049   64.6878 C   0  0  0  0  0  0  0  0  0  0  0  0
  -51.1658   59.3371   62.5089 C   0  0  0  0  0  0  0  0  0  0  0  0
  -50.2746   59.5707   65.1311 C   0  0  0  0  0  0  0  0  0  0  0  0
  -49.7065   58.6282   64.2756 C   0  0  0  0  0  0  0  0  0  0  0  0
  -50.1595   58.4750   62.9591 C   0  0  0  0  0  0  0  0  0  0  0  0
  -49.7855   59.6298   66.3941 O   0  0  0  0  0  0  0  0  0  0  0  0
  -48.7106   57.8284   64.7555 O   0  0  0  0  0  0  0  0  0  0  0  0
  -50.1370   60.2481   67.0041 H   0  0  0  0  0  0  0  0  0  0  0  0
  -48.4093   57.9330   65.6366 H   0  0  0  0  0  0  0  0  0  0  0  0
 12 13  1  0  0  0
  9 10  2  0  0  0
  9  8  1  0  0  0
  6  7  2  0  0  0
  6  8  1  0  0  0
 10 11  1  0  0  0
  7  5  1  0  0  0
 16 17  2  0  0  0
 16 18  1  0  0  0
 17 19  1  0  0  0
 18 21  2  0  0  0
 13 11  1  0  0  0
  5  4  1  0  0  0
  4  3  1  0  0  0
  3  2  1  0  0  0
  2  1  1  0  0  0
  1 14  1  0  0  0
 14 15  1  0  0  0
 15 21  1  0  0  0
 19 20  2  0  0  0
 19 22  1  0  0  0
 20 21  1  0  0  0
 20 23  1  0  0  0
 22 24  1  0  0  0
 23 25  1  0  0  0
M  END
> <minimizedAffinity>
-8.96998

$$$$



 25 25  0  0  0  0  0  0  0  0999 V2000
  -49.7042   57.1440   59.3014 C   0  0  0  0  0  0  0  0  0  0  0  0
  -48.8612   55.8989   59.6146 C   0  0  0  0  0  0  0  0  0  0  0  0
  -47.8388   55.6592   58.5121 C   0  0  0  0  0  0  0  0  0  0  0  0
  -48.0361   56.6932   57.4032 C   0  0  0  0  0  0  0  0  0  0  0  0
  -46.7167   57.4055   57.1062 C   0  0  0  0  0  0  0  0  0  0  0  0
  -46.2900   58.9301   59.2439 C   0  0  0  0  0  0  0  0  0  0  0  0
  -46.0055   57.6470   58.4389 C   0  0  0  0  0  0  0  0  0  0  0  0
  -47.1828   60.0552   58.6983 C   0  0  0  0  0  0  0  0  0  0  0  0
  -48.2529   60.3414   59.7619 C   0  0  0  0  0  0  0  0  0  0  0  0
  -47.9370   61.1456   61.0457 C   0  0  0  0  0  0  0  0  0  0  0  0
  -46.5381   61.7353   61.3114 C   0  0  0  0  0  0  0  0  0  0  0  0
  -46.8210   60.9180   63.6948 C   0  0  0  0  0  0  0  0  0  0  0  0
  -45.9131   60.9354   62.4626 C   0  0  0  0  0  0  0  0  0  0  0  0
  -50.5157   57.6581   60.5188 C   0  0  0  0  0  0  0  0  0  0  0  0
  -49.6960   57.6803   61.8307 C   0  0  0  0  0  0  0  0  0  0  0  0
  -51.7418   60.3567   63.3820 C   0  0  0  0  0  0  0  0  0  0  0  0
  -51.2568   60.3745   64.6965 C   0  0  0  0  0  0  0  0  0  0  0  0
  -51.2126   59.4616   62.4447 C   0  0  0  0  0  0  0  0  0  0  0  0
  -50.2436   59.4835   65.0497 C   0  0  0  0  0  0  0  0  0  0  0  0
  -49.7266   58.5895   64.1135 C   0  0  0  0  0  0  0  0  0  0  0  0
  -50.2198   58.5428   62.8033 C   0  0  0  0  0  0  0  0  0  0  0  0
  -49.7186   59.4393   66.2987 O   0  0  0  0  0  0  0  0  0  0  0  0
  -48.7416   57.7310   64.5064 O   0  0  0  0  0  0  0  0  0  0  0  0
  -50.0353   60.0217   66.9609 H   0  0  0  0  0  0  0  0  0  0  0  0
  -48.4134   57.7642   65.3835 H   0  0  0  0  0  0  0  0  0  0  0  0
 12 13  1  0  0  0
  9 10  2  0  0  0
  9  8  1  0  0  0
  6  7  2  0  0  0
  6  8  1  0  0  0
 10 11  1  0  0  0
  7  5  1  0  0  0
 16 17  2  0  0  0
 16 18  1  0  0  0
 17 19  1  0  0  0
 18 21  2  0  0  0
 13 11  1  0  0  0
  5  4  1  0  0  0
  4  3  1  0  0  0
  3  2  1  0  0  0
  2  1  1  0  0  0
  1 14  1  0  0  0
 14 15  1  0  0  0
 15 21  1  0  0  0
 19 20  2  0  0  0
 19 22  1  0  0  0
 20 21  1  0  0  0
 20 23  1  0  0  0
 22 24  1  0  0  0
 23 25  1  0  0  0
M  END
> <minimizedAffinity>
-8.55919

$$$$



 25 25  0  0  0  0  0  0  0  0999 V2000
  -47.5052   56.6519   56.8523 C   0  0  0  0  0  0  0  0  0  0  0  0
  -47.7079   55.6227   57.9743 C   0  0  0  0  0  0  0  0  0  0  0  0
  -48.8115   56.0780   58.9191 C   0  0  0  0  0  0  0  0  0  0  0  0
  -49.5740   57.2421   58.2856 C   0  0  0  0  0  0  0  0  0  0  0  0
  -50.1233   58.1658   59.3726 C   0  0  0  0  0  0  0  0  0  0  0  0
  -50.3015   58.1699   62.0268 C   0  0  0  0  0  0  0  0  0  0  0  0
  -50.0394   57.4204   60.7058 C   0  0  0  0  0  0  0  0  0  0  0  0
  -50.5295   59.6886   62.0724 C   0  0  0  0  0  0  0  0  0  0  0  0
  -51.5215   59.9644   63.2118 C   0  0  0  0  0  0  0  0  0  0  0  0
  -51.0495   60.2429   64.6590 C   0  0  0  0  0  0  0  0  0  0  0  0
  -49.5546   60.2945   65.0304 C   0  0  0  0  0  0  0  0  0  0  0  0
  -50.2325   58.1117   66.1279 C   0  0  0  0  0  0  0  0  0  0  0  0
  -49.1219   58.8676   65.3943 C   0  0  0  0  0  0  0  0  0  0  0  0
  -46.2700   57.5635   57.0713 C   0  0  0  0  0  0  0  0  0  0  0  0
  -46.6385   58.9720   57.5947 C   0  0  0  0  0  0  0  0  0  0  0  0
  -45.7935   58.1527   61.1118 C   0  0  0  0  0  0  0  0  0  0  0  0
  -46.2604   59.2815   61.7981 C   0  0  0  0  0  0  0  0  0  0  0  0
  -45.9291   58.0639   59.7212 C   0  0  0  0  0  0  0  0  0  0  0  0
  -46.8565   60.3106   61.0694 C   0  0  0  0  0  0  0  0  0  0  0  0
  -46.9813   60.2192   59.6841 C   0  0  0  0  0  0  0  0  0  0  0  0
  -46.4958   59.1085   58.9822 C   0  0  0  0  0  0  0  0  0  0  0  0
  -47.3359   61.4337   61.6581 O   0  0  0  0  0  0  0  0  0  0  0  0
  -47.5643   61.2538   59.0122 O   0  0  0  0  0  0  0  0  0  0  0  0
  -47.2737   61.5387   62.5871 H   0  0  0  0  0  0  0  0  0  0  0  0
  -47.8883   61.9956   59.4841 H   0  0  0  0  0  0  0  0  0  0  0  0
 12 13  1  0  0  0
  9 10  2  0  0  0
  9  8  1  0  0  0
  6  7  2  0  0  0
  6  8  1  0  0  0
 10 11  1  0  0  0
  7  5  1  0  0  0
 16 17  2  0  0  0
 16 18  1  0  0  0
 17 19  1  0  0  0
 18 21  2  0  0  0
 13 11  1  0  0  0
  5  4  1  0  0  0
  4  3  1  0  0  0
  3  2  1  0  0  0
  2  1  1  0  0  0
  1 14  1  0  0  0
 14 15  1  0  0  0
 15 21  1  0  0  0
 19 20  2  0  0  0
 19 22  1  0  0  0
 20 21  1  0  0  0
 20 23  1  0  0  0
 22 24  1  0  0  0
 23 25  1  0  0  0
M  END
> <minimizedAffinity>
-8.40466

$$$$



 25 25  0  0  0  0  0  0  0  0999 V2000
  -50.0900   57.8914   59.2882 C   0  0  0  0  0  0  0  0  0  0  0  0
  -48.9410   57.0040   58.7866 C   0  0  0  0  0  0  0  0  0  0  0  0
  -48.5298   57.4134   57.3790 C   0  0  0  0  0  0  0  0  0  0  0  0
  -47.0310   57.7151   57.3555 C   0  0  0  0  0  0  0  0  0  0  0  0
  -46.6712   58.6852   58.4807 C   0  0  0  0  0  0  0  0  0  0  0  0
  -47.7125   61.0610   59.0702 C   0  0  0  0  0  0  0  0  0  0  0  0
  -47.1005   60.0872   58.0443 C   0  0  0  0  0  0  0  0  0  0  0  0
  -48.0273   60.6359   60.5127 C   0  0  0  0  0  0  0  0  0  0  0  0
  -46.8732   61.1341   61.3947 C   0  0  0  0  0  0  0  0  0  0  0  0
  -45.9439   60.1584   62.1557 C   0  0  0  0  0  0  0  0  0  0  0  0
  -46.1031   58.6296   62.0421 C   0  0  0  0  0  0  0  0  0  0  0  0
  -43.5919   58.3743   62.2817 C   0  0  0  0  0  0  0  0  0  0  0  0
  -44.8164   58.0791   61.4120 C   0  0  0  0  0  0  0  0  0  0  0  0
  -50.6538   57.4470   60.6627 C   0  0  0  0  0  0  0  0  0  0  0  0
  -49.6757   57.7039   61.8334 C   0  0  0  0  0  0  0  0  0  0  0  0
  -51.7345   60.3300   63.4521 C   0  0  0  0  0  0  0  0  0  0  0  0
  -51.2379   60.3286   64.7623 C   0  0  0  0  0  0  0  0  0  0  0  0
  -51.2047   59.4578   62.4937 C   0  0  0  0  0  0  0  0  0  0  0  0
  -50.2125   59.4417   65.0900 C   0  0  0  0  0  0  0  0  0  0  0  0
  -49.6949   58.5705   64.1329 C   0  0  0  0  0  0  0  0  0  0  0  0
  -50.1994   58.5429   62.8264 C   0  0  0  0  0  0  0  0  0  0  0  0
  -49.6759   59.3798   66.3333 O   0  0  0  0  0  0  0  0  0  0  0  0
  -48.6977   57.7151   64.5011 O   0  0  0  0  0  0  0  0  0  0  0  0
  -49.9925   59.9466   67.0089 H   0  0  0  0  0  0  0  0  0  0  0  0
  -48.3620   57.7356   65.3757 H   0  0  0  0  0  0  0  0  0  0  0  0
 12 13  1  0  0  0
  9 10  2  0  0  0
  9  8  1  0  0  0
  6  7  2  0  0  0
  6  8  1  0  0  0
 10 11  1  0  0  0
  7  5  1  0  0  0
 16 17  2  0  0  0
 16 18  1  0  0  0
 17 19  1  0  0  0
 18 21  2  0  0  0
 13 11  1  0  0  0
  5  4  1  0  0  0
  4  3  1  0  0  0
  3  2  1  0  0  0
  2  1  1  0  0  0
  1 14  1  0  0  0
 14 15  1  0  0  0
 15 21  1  0  0  0
 19 20  2  0  0  0
 19 22  1  0  0  0
 20 21  1  0  0  0
 20 23  1  0  0  0
 22 24  1  0  0  0
 23 25  1  0  0  0
M  END
> <minimizedAffinity>
-8.38884

$$$$



 25 25  0  0  0  0  0  0  0  0999 V2000
  -51.2234   59.7264   63.2837 C   0  0  0  0  0  0  0  0  0  0  0  0
  -50.1900   59.5967   62.1548 C   0  0  0  0  0  0  0  0  0  0  0  0
  -49.9545   58.1310   61.8167 C   0  0  0  0  0  0  0  0  0  0  0  0
  -50.5607   57.8221   60.4474 C   0  0  0  0  0  0  0  0  0  0  0  0
  -49.7800   58.5458   59.3504 C   0  0  0  0  0  0  0  0  0  0  0  0
  -48.3906   57.5945   57.2911 C   0  0  0  0  0  0  0  0  0  0  0  0
  -49.6674   57.5988   58.1543 C   0  0  0  0  0  0  0  0  0  0  0  0
  -47.2529   58.6035   57.5110 C   0  0  0  0  0  0  0  0  0  0  0  0
  -46.0096   57.8024   57.9243 C   0  0  0  0  0  0  0  0  0  0  0  0
  -45.6270   57.5925   59.4090 C   0  0  0  0  0  0  0  0  0  0  0  0
  -46.4931   58.1461   60.5574 C   0  0  0  0  0  0  0  0  0  0  0  0
  -46.9127   60.6466   60.5528 C   0  0  0  0  0  0  0  0  0  0  0  0
  -45.9373   59.5281   60.9273 C   0  0  0  0  0  0  0  0  0  0  0  0
  -50.6489   60.3736   64.5705 C   0  0  0  0  0  0  0  0  0  0  0  0
  -50.5989   59.3995   65.7713 C   0  0  0  0  0  0  0  0  0  0  0  0
  -47.9642   56.8043   65.4913 C   0  0  0  0  0  0  0  0  0  0  0  0
  -46.9241   57.3565   66.2506 C   0  0  0  0  0  0  0  0  0  0  0  0
  -49.1752   57.4913   65.3451 C   0  0  0  0  0  0  0  0  0  0  0  0
  -47.1192   58.6002   66.8511 C   0  0  0  0  0  0  0  0  0  0  0  0
  -48.3247   59.2823   66.6949 C   0  0  0  0  0  0  0  0  0  0  0  0
  -49.3634   58.7543   65.9175 C   0  0  0  0  0  0  0  0  0  0  0  0
  -46.1646   59.2010   67.6030 O   0  0  0  0  0  0  0  0  0  0  0  0
  -48.4675   60.4997   67.2944 O   0  0  0  0  0  0  0  0  0  0  0  0
  -45.3383   58.7795   67.7354 H   0  0  0  0  0  0  0  0  0  0  0  0
  -47.7711   60.8507   67.8139 H   0  0  0  0  0  0  0  0  0  0  0  0
 12 13  1  0  0  0
  9 10  2  0  0  0
  9  8  1  0  0  0
  6  7  2  0  0  0
  6  8  1  0  0  0
 10 11  1  0  0  0
  7  5  1  0  0  0
 16 17  2  0  0  0
 16 18  1  0  0  0
 17 19  1  0  0  0
 18 21  2  0  0  0
 13 11  1  0  0  0
  5  4  1  0  0  0
  4  3  1  0  0  0
  3  2  1  0  0  0
  2  1  1  0  0  0
  1 14  1  0  0  0
 14 15  1  0  0  0
 15 21  1  0  0  0
 19 20  2  0  0  0
 19 22  1  0  0  0
 20 21  1  0  0  0
 20 23  1  0  0  0
 22 24  1  0  0  0
 23 25  1  0  0  0
M  END
> <minimizedAffinity>
-8.35134

$$$$



 25 25  0  0  0  0  0  0  0  0999 V2000
  -49.8828   57.9741   58.8117 C   0  0  0  0  0  0  0  0  0  0  0  0
  -49.9575   57.0124   60.0070 C   0  0  0  0  0  0  0  0  0  0  0  0
  -50.4654   57.7412   61.2436 C   0  0  0  0  0  0  0  0  0  0  0  0
  -49.2776   58.3035   62.0251 C   0  0  0  0  0  0  0  0  0  0  0  0
  -49.5026   59.7839   62.3325 C   0  0  0  0  0  0  0  0  0  0  0  0
  -51.5102   60.2236   64.0214 C   0  0  0  0  0  0  0  0  0  0  0  0
  -50.9972   59.9866   62.5875 C   0  0  0  0  0  0  0  0  0  0  0  0
  -50.5829   60.1439   65.2439 C   0  0  0  0  0  0  0  0  0  0  0  0
  -50.3977   58.6562   65.5767 C   0  0  0  0  0  0  0  0  0  0  0  0
  -49.0658   58.1019   66.1367 C   0  0  0  0  0  0  0  0  0  0  0  0
  -47.8615   59.0193   66.4256 C   0  0  0  0  0  0  0  0  0  0  0  0
  -46.7354   60.5452   64.7427 C   0  0  0  0  0  0  0  0  0  0  0  0
  -47.0237   59.0959   65.1419 C   0  0  0  0  0  0  0  0  0  0  0  0
  -48.6782   57.6969   57.8752 C   0  0  0  0  0  0  0  0  0  0  0  0
  -47.6828   58.8787   57.7983 C   0  0  0  0  0  0  0  0  0  0  0  0
  -45.5639   58.1242   60.7472 C   0  0  0  0  0  0  0  0  0  0  0  0
  -45.5185   59.3619   61.4024 C   0  0  0  0  0  0  0  0  0  0  0  0
  -46.2872   57.9797   59.5573 C   0  0  0  0  0  0  0  0  0  0  0  0
  -46.2027   60.4417   60.8445 C   0  0  0  0  0  0  0  0  0  0  0  0
  -46.9145   60.2929   59.6553 C   0  0  0  0  0  0  0  0  0  0  0  0
  -46.9472   59.0683   58.9760 C   0  0  0  0  0  0  0  0  0  0  0  0
  -46.2105   61.6703   61.4172 O   0  0  0  0  0  0  0  0  0  0  0  0
  -47.5621   61.3789   59.1427 O   0  0  0  0  0  0  0  0  0  0  0  0
  -45.7457   61.8172   62.2174 H   0  0  0  0  0  0  0  0  0  0  0  0
  -47.5387   62.1969   59.5990 H   0  0  0  0  0  0  0  0  0  0  0  0
 12 13  1  0  0  0
  9 10  2  0  0  0
  9  8  1  0  0  0
  6  7  2  0  0  0
  6  8  1  0  0  0
 10 11  1  0  0  0
  7  5  1  0  0  0
 16 17  2  0  0  0
 16 18  1  0  0  0
 17 19  1  0  0  0
 18 21  2  0  0  0
 13 11  1  0  0  0
  5  4  1  0  0  0
  4  3  1  0  0  0
  3  2  1  0  0  0
  2  1  1  0  0  0
  1 14  1  0  0  0
 14 15  1  0  0  0
 15 21  1  0  0  0
 19 20  2  0  0  0
 19 22  1  0  0  0
 20 21  1  0  0  0
 20 23  1  0  0  0
 22 24  1  0  0  0
 23 25  1  0  0  0
M  END
> <minimizedAffinity>
-8.33556

$$$$



 25 25  0  0  0  0  0  0  0  0999 V2000
  -50.1990   59.1542   60.7547 C   0  0  0  0  0  0  0  0  0  0  0  0
  -50.5836   57.7164   60.3754 C   0  0  0  0  0  0  0  0  0  0  0  0
  -49.6354   57.1758   59.3139 C   0  0  0  0  0  0  0  0  0  0  0  0
  -49.0168   55.8666   59.8051 C   0  0  0  0  0  0  0  0  0  0  0  0
  -47.6651   55.6366   59.1294 C   0  0  0  0  0  0  0  0  0  0  0  0
  -47.0836   56.4877   56.6771 C   0  0  0  0  0  0  0  0  0  0  0  0
  -47.9008   55.5819   57.6189 C   0  0  0  0  0  0  0  0  0  0  0  0
  -46.1090   57.5500   57.2084 C   0  0  0  0  0  0  0  0  0  0  0  0
  -46.8979   58.8601   57.3481 C   0  0  0  0  0  0  0  0  0  0  0  0
  -47.0128   59.6068   58.6986 C   0  0  0  0  0  0  0  0  0  0  0  0
  -46.3112   59.0954   59.9721 C   0  0  0  0  0  0  0  0  0  0  0  0
  -47.3865   61.3111   60.5742 C   0  0  0  0  0  0  0  0  0  0  0  0
  -46.5905   60.1097   61.0896 C   0  0  0  0  0  0  0  0  0  0  0  0
  -50.6057   59.5372   62.2014 C   0  0  0  0  0  0  0  0  0  0  0  0
  -50.3499   58.4057   63.2250 C   0  0  0  0  0  0  0  0  0  0  0  0
  -46.9018   58.3794   64.5907 C   0  0  0  0  0  0  0  0  0  0  0  0
  -47.0610   59.0562   65.8072 C   0  0  0  0  0  0  0  0  0  0  0  0
  -48.0005   58.1692   63.7490 C   0  0  0  0  0  0  0  0  0  0  0  0
  -48.3301   59.5165   66.1575 C   0  0  0  0  0  0  0  0  0  0  0  0
  -49.4183   59.3107   65.3111 C   0  0  0  0  0  0  0  0  0  0  0  0
  -49.2689   58.6588   64.0804 C   0  0  0  0  0  0  0  0  0  0  0  0
  -48.5682   60.1773   67.3170 O   0  0  0  0  0  0  0  0  0  0  0  0
  -50.6395   59.7857   65.6917 O   0  0  0  0  0  0  0  0  0  0  0  0
  -47.8667   60.3385   67.9169 H   0  0  0  0  0  0  0  0  0  0  0  0
  -50.7368   60.2214   66.5155 H   0  0  0  0  0  0  0  0  0  0  0  0
 12 13  1  0  0  0
  9 10  2  0  0  0
  9  8  1  0  0  0
  6  7  2  0  0  0
  6  8  1  0  0  0
 10 11  1  0  0  0
  7  5  1  0  0  0
 16 17  2  0  0  0
 16 18  1  0  0  0
 17 19  1  0  0  0
 18 21  2  0  0  0
 13 11  1  0  0  0
  5  4  1  0  0  0
  4  3  1  0  0  0
  3  2  1  0  0  0
  2  1  1  0  0  0
  1 14  1  0  0  0
 14 15  1  0  0  0
 15 21  1  0  0  0
 19 20  2  0  0  0
 19 22  1  0  0  0
 20 21  1  0  0  0
 20 23  1  0  0  0
 22 24  1  0  0  0
 23 25  1  0  0  0
M  END
> <minimizedAffinity>
-8.31298

$$$$



 25 25  0  0  0  0  0  0  0  0999 V2000
  -47.9232   55.7833   58.1331 C   0  0  0  0  0  0  0  0  0  0  0  0
  -48.7341   55.9295   59.4293 C   0  0  0  0  0  0  0  0  0  0  0  0
  -49.6418   57.1494   59.3527 C   0  0  0  0  0  0  0  0  0  0  0  0
  -50.6935   57.0699   60.4597 C   0  0  0  0  0  0  0  0  0  0  0  0
  -50.1290   57.6326   61.7640 C   0  0  0  0  0  0  0  0  0  0  0  0
  -50.4428   60.2210   62.2910 C   0  0  0  0  0  0  0  0  0  0  0  0
  -49.7395   59.0907   61.5144 C   0  0  0  0  0  0  0  0  0  0  0  0
  -51.6243   59.9505   63.2353 C   0  0  0  0  0  0  0  0  0  0  0  0
  -51.2544   60.5387   64.6048 C   0  0  0  0  0  0  0  0  0  0  0  0
  -50.5690   59.6900   65.7024 C   0  0  0  0  0  0  0  0  0  0  0  0
  -50.1866   58.2153   65.4689 C   0  0  0  0  0  0  0  0  0  0  0  0
  -47.9915   56.9604   65.6557 C   0  0  0  0  0  0  0  0  0  0  0  0
  -48.7046   58.1821   65.0712 C   0  0  0  0  0  0  0  0  0  0  0  0
  -47.9312   57.0625   57.2564 C   0  0  0  0  0  0  0  0  0  0  0  0
  -46.6425   57.9064   57.3997 C   0  0  0  0  0  0  0  0  0  0  0  0
  -47.4108   60.9737   59.3379 C   0  0  0  0  0  0  0  0  0  0  0  0
  -46.7347   60.7387   60.5425 C   0  0  0  0  0  0  0  0  0  0  0  0
  -47.3678   60.0282   58.3064 C   0  0  0  0  0  0  0  0  0  0  0  0
  -46.0251   59.5474   60.6920 C   0  0  0  0  0  0  0  0  0  0  0  0
  -45.9929   58.6067   59.6638 C   0  0  0  0  0  0  0  0  0  0  0  0
  -46.6853   58.8167   58.4644 C   0  0  0  0  0  0  0  0  0  0  0  0
  -45.3431   59.2458   61.8241 O   0  0  0  0  0  0  0  0  0  0  0  0
  -45.2921   57.4521   59.8580 O   0  0  0  0  0  0  0  0  0  0  0  0
  -45.3365   59.8483   62.5417 H   0  0  0  0  0  0  0  0  0  0  0  0
  -44.8298   57.3141   60.6612 H   0  0  0  0  0  0  0  0  0  0  0  0
 12 13  1  0  0  0
  9 10  2  0  0  0
  9  8  1  0  0  0
  6  7  2  0  0  0
  6  8  1  0  0  0
 10 11  1  0  0  0
  7  5  1  0  0  0
 16 17  2  0  0  0
 16 18  1  0  0  0
 17 19  1  0  0  0
 18 21  2  0  0  0
 13 11  1  0  0  0
  5  4  1  0  0  0
  4  3  1  0  0  0
  3  2  1  0  0  0
  2  1  1  0  0  0
  1 14  1  0  0  0
 14 15  1  0  0  0
 15 21  1  0  0  0
 19 20  2  0  0  0
 19 22  1  0  0  0
 20 21  1  0  0  0
 20 23  1  0  0  0
 22 24  1  0  0  0
 23 25  1  0  0  0
M  END
> <minimizedAffinity>
-8.26118

$$$$
