


 19 18  0  0  0  0  0  0  0  0999 V2000
  -49.6974   58.4129   65.3121 C   0  0  0  0  0  0  0  0  0  0  0  0
  -49.6584   59.9024   65.6247 C   0  0  0  0  0  0  0  0  0  0  0  0
  -48.4370   60.2943   66.4388 C   0  0  0  0  0  0  0  0  0  0  0  0
  -47.3825   60.9144   65.5368 C   0  0  0  0  0  0  0  0  0  0  0  0
  -46.0880   60.1353   65.6834 C   0  0  0  0  0  0  0  0  0  0  0  0
  -46.1304   59.1908   66.8741 C   0  0  0  0  0  0  0  0  0  0  0  0
  -45.7168   57.8111   66.4259 C   0  0  0  0  0  0  0  0  0  0  0  0
  -46.5814   56.9409   66.2050 O   0  0  0  0  0  0  0  0  0  0  0  0
  -44.5129   57.5140   66.2731 O   0  0  0  0  0  0  0  0  0  0  0  0
  -43.8482   58.1545   66.4342 H   0  0  0  0  0  0  0  0  0  0  0  0
  -49.2009   58.2399   63.8840 C   0  0  0  0  0  0  0  0  0  0  0  0
  -49.5340   59.4375   63.0271 C   0  0  0  0  0  0  0  0  0  0  0  0
  -50.4357   59.2804   61.8748 C   0  0  0  0  0  0  0  0  0  0  0  0
  -50.8335   57.8915   61.4424 C   0  0  0  0  0  0  0  0  0  0  0  0
  -50.3191   57.5952   60.0379 C   0  0  0  0  0  0  0  0  0  0  0  0
  -49.3253   56.4344   60.0713 C   0  0  0  0  0  0  0  0  0  0  0  0
  -48.1336   56.6832   59.1480 C   0  0  0  0  0  0  0  0  0  0  0  0
  -47.8332   58.1764   58.9939 C   0  0  0  0  0  0  0  0  0  0  0  0
  -46.8637   58.4729   57.8527 C   0  0  0  0  0  0  0  0  0  0  0  0
  7  8  2  0  0  0
  7  6  1  0  0  0
  7  9  1  0  0  0
  6  5  1  0  0  0
  5  4  1  0  0  0
  4  3  1  0  0  0
  3  2  1  0  0  0
  2  1  1  0  0  0
  1 11  1  0  0  0
 11 12  1  0  0  0
 12 13  2  0  0  0
 13 14  1  0  0  0
 14 15  1  0  0  0
 15 16  1  0  0  0
 16 17  1  0  0  0
 17 18  1  0  0  0
 18 19  1  0  0  0
  9 10  1  0  0  0
M  END
> <minimizedAffinity>
-7.26365

$$$$



 19 18  0  0  0  0  0  0  0  0999 V2000
  -50.6829   58.8302   62.1070 C   0  0  0  0  0  0  0  0  0  0  0  0
  -50.5799   57.8162   60.9761 C   0  0  0  0  0  0  0  0  0  0  0  0
  -49.1434   57.5623   60.5513 C   0  0  0  0  0  0  0  0  0  0  0  0
  -48.8406   58.3016   59.2584 C   0  0  0  0  0  0  0  0  0  0  0  0
  -47.4136   57.9979   58.8391 C   0  0  0  0  0  0  0  0  0  0  0  0
  -47.2884   57.8513   57.3309 C   0  0  0  0  0  0  0  0  0  0  0  0
  -48.0367   56.6179   56.8902 C   0  0  0  0  0  0  0  0  0  0  0  0
  -47.7323   55.5028   57.3566 O   0  0  0  0  0  0  0  0  0  0  0  0
  -48.9631   56.6869   56.0548 O   0  0  0  0  0  0  0  0  0  0  0  0
  -49.2067   57.5160   55.6927 H   0  0  0  0  0  0  0  0  0  0  0  0
  -49.4054   58.7212   62.9267 C   0  0  0  0  0  0  0  0  0  0  0  0
  -49.6894   58.3204   64.3544 C   0  0  0  0  0  0  0  0  0  0  0  0
  -49.8303   59.3584   65.3879 C   0  0  0  0  0  0  0  0  0  0  0  0
  -49.4724   60.7830   65.0463 C   0  0  0  0  0  0  0  0  0  0  0  0
  -48.2427   61.2328   65.8276 C   0  0  0  0  0  0  0  0  0  0  0  0
  -46.9676   60.8126   65.0970 C   0  0  0  0  0  0  0  0  0  0  0  0
  -46.1559   59.8049   65.9096 C   0  0  0  0  0  0  0  0  0  0  0  0
  -46.0497   58.4528   65.1997 C   0  0  0  0  0  0  0  0  0  0  0  0
  -46.5769   57.2954   66.0438 C   0  0  0  0  0  0  0  0  0  0  0  0
  7  8  2  0  0  0
  7  6  1  0  0  0
  7  9  1  0  0  0
  6  5  1  0  0  0
  5  4  1  0  0  0
  4  3  1  0  0  0
  3  2  1  0  0  0
  2  1  1  0  0  0
  1 11  1  0  0  0
 11 12  1  0  0  0
 12 13  2  0  0  0
 13 14  1  0  0  0
 14 15  1  0  0  0
 15 16  1  0  0  0
 16 17  1  0  0  0
 17 18  1  0  0  0
 18 19  1  0  0  0
  9 10  1  0  0  0
M  END
> <minimizedAffinity>
-7.26181

$$$$



 19 18  0  0  0  0  0  0  0  0999 V2000
  -51.1177   60.0925   63.7373 C   0  0  0  0  0  0  0  0  0  0  0  0
  -50.6252   59.6696   62.3602 C   0  0  0  0  0  0  0  0  0  0  0  0
  -50.1133   58.2393   62.3393 C   0  0  0  0  0  0  0  0  0  0  0  0
  -50.4929   57.5656   61.0308 C   0  0  0  0  0  0  0  0  0  0  0  0
  -50.0562   58.4493   59.8763 C   0  0  0  0  0  0  0  0  0  0  0  0
  -49.4856   57.6337   58.7270 C   0  0  0  0  0  0  0  0  0  0  0  0
  -48.2058   56.9737   59.1766 C   0  0  0  0  0  0  0  0  0  0  0  0
  -47.2654   57.6664   59.6119 O   0  0  0  0  0  0  0  0  0  0  0  0
  -48.0618   55.7340   59.1183 O   0  0  0  0  0  0  0  0  0  0  0  0
  -48.7572   55.1963   58.7941 H   0  0  0  0  0  0  0  0  0  0  0  0
  -49.9049   60.1348   64.6555 C   0  0  0  0  0  0  0  0  0  0  0  0
  -48.9815   61.2784   64.3101 C   0  0  0  0  0  0  0  0  0  0  0  0
  -47.6107   61.2945   64.8448 C   0  0  0  0  0  0  0  0  0  0  0  0
  -47.2259   60.2878   65.8997 C   0  0  0  0  0  0  0  0  0  0  0  0
  -45.8430   59.7112   65.6170 C   0  0  0  0  0  0  0  0  0  0  0  0
  -45.9660   58.3245   64.9857 C   0  0  0  0  0  0  0  0  0  0  0  0
  -44.6031   57.7636   64.5827 C   0  0  0  0  0  0  0  0  0  0  0  0
  -43.4567   58.6759   65.0265 C   0  0  0  0  0  0  0  0  0  0  0  0
  -42.5342   58.0168   66.0485 C   0  0  0  0  0  0  0  0  0  0  0  0
  7  8  2  0  0  0
  7  6  1  0  0  0
  7  9  1  0  0  0
  6  5  1  0  0  0
  5  4  1  0  0  0
  4  3  1  0  0  0
  3  2  1  0  0  0
  2  1  1  0  0  0
  1 11  1  0  0  0
 11 12  1  0  0  0
 12 13  2  0  0  0
 13 14  1  0  0  0
 14 15  1  0  0  0
 15 16  1  0  0  0
 16 17  1  0  0  0
 17 18  1  0  0  0
 18 19  1  0  0  0
  9 10  1  0  0  0
M  END
> <minimizedAffinity>
-6.74757

$$$$



 19 18  0  0  0  0  0  0  0  0999 V2000
  -47.9033   59.2230   64.7290 C   0  0  0  0  0  0  0  0  0  0  0  0
  -46.9641   58.2268   65.3948 C   0  0  0  0  0  0  0  0  0  0  0  0
  -45.6170   58.1417   64.6977 C   0  0  0  0  0  0  0  0  0  0  0  0
  -44.5241   58.6908   65.5999 C   0  0  0  0  0  0  0  0  0  0  0  0
  -44.1540   60.0870   65.1329 C   0  0  0  0  0  0  0  0  0  0  0  0
  -42.6718   60.3694   65.3200 C   0  0  0  0  0  0  0  0  0  0  0  0
  -42.3154   60.1971   66.7756 C   0  0  0  0  0  0  0  0  0  0  0  0
  -41.6473   59.2109   67.1425 O   0  0  0  0  0  0  0  0  0  0  0  0
  -42.6822   61.0271   67.6343 O   0  0  0  0  0  0  0  0  0  0  0  0
  -43.1852   61.7750   67.3782 H   0  0  0  0  0  0  0  0  0  0  0  0
  -49.0667   58.4288   64.1532 C   0  0  0  0  0  0  0  0  0  0  0  0
  -50.1103   59.3310   63.5394 C   0  0  0  0  0  0  0  0  0  0  0  0
  -50.7398   58.9538   62.2639 C   0  0  0  0  0  0  0  0  0  0  0  0
  -50.1762   57.7907   61.4868 C   0  0  0  0  0  0  0  0  0  0  0  0
  -50.6811   57.8073   60.0481 C   0  0  0  0  0  0  0  0  0  0  0  0
  -49.5279   57.5488   59.0787 C   0  0  0  0  0  0  0  0  0  0  0  0
  -48.1834   57.9608   59.6763 C   0  0  0  0  0  0  0  0  0  0  0  0
  -47.0152   57.6009   58.7548 C   0  0  0  0  0  0  0  0  0  0  0  0
  -46.7434   58.6663   57.6959 C   0  0  0  0  0  0  0  0  0  0  0  0
  7  8  2  0  0  0
  7  6  1  0  0  0
  7  9  1  0  0  0
  6  5  1  0  0  0
  5  4  1  0  0  0
  4  3  1  0  0  0
  3  2  1  0  0  0
  2  1  1  0  0  0
  1 11  1  0  0  0
 11 12  1  0  0  0
 12 13  2  0  0  0
 13 14  1  0  0  0
 14 15  1  0  0  0
 15 16  1  0  0  0
 16 17  1  0  0  0
 17 18  1  0  0  0
 18 19  1  0  0  0
  9 10  1  0  0  0
M  END
> <minimizedAffinity>
-6.68918

$$$$



 19 18  0  0  0  0  0  0  0  0999 V2000
  -49.8789   58.7424   65.4910 C   0  0  0  0  0  0  0  0  0  0  0  0
  -50.1878   60.1603   65.0308 C   0  0  0  0  0  0  0  0  0  0  0  0
  -51.1570   60.1944   63.8614 C   0  0  0  0  0  0  0  0  0  0  0  0
  -50.4032   60.0372   62.5510 C   0  0  0  0  0  0  0  0  0  0  0  0
  -50.7159   58.6731   61.9626 C   0  0  0  0  0  0  0  0  0  0  0  0
  -49.4585   57.9626   61.4875 C   0  0  0  0  0  0  0  0  0  0  0  0
  -49.7550   57.2443   60.1946 C   0  0  0  0  0  0  0  0  0  0  0  0
  -50.4225   57.8083   59.3057 O   0  0  0  0  0  0  0  0  0  0  0  0
  -49.3464   56.0812   59.9919 O   0  0  0  0  0  0  0  0  0  0  0  0
  -48.8430   55.6405   60.6480 H   0  0  0  0  0  0  0  0  0  0  0  0
  -48.3975   58.5006   65.2401 C   0  0  0  0  0  0  0  0  0  0  0  0
  -47.6348   59.7964   65.1030 C   0  0  0  0  0  0  0  0  0  0  0  0
  -46.1884   59.8221   65.3725 C   0  0  0  0  0  0  0  0  0  0  0  0
  -45.5386   58.6095   65.9904 C   0  0  0  0  0  0  0  0  0  0  0  0
  -44.6895   57.8693   64.9628 C   0  0  0  0  0  0  0  0  0  0  0  0
  -43.2765   57.6490   65.5026 C   0  0  0  0  0  0  0  0  0  0  0  0
  -42.3780   58.8578   65.2458 C   0  0  0  0  0  0  0  0  0  0  0  0
  -41.7503   59.3869   66.5378 C   0  0  0  0  0  0  0  0  0  0  0  0
  -42.5746   60.4945   67.1889 C   0  0  0  0  0  0  0  0  0  0  0  0
  7  8  2  0  0  0
  7  6  1  0  0  0
  7  9  1  0  0  0
  6  5  1  0  0  0
  5  4  1  0  0  0
  4  3  1  0  0  0
  3  2  1  0  0  0
  2  1  1  0  0  0
  1 11  1  0  0  0
 11 12  1  0  0  0
 12 13  2  0  0  0
 13 14  1  0  0  0
 14 15  1  0  0  0
 15 16  1  0  0  0
 16 17  1  0  0  0
 17 18  1  0  0  0
 18 19  1  0  0  0
  9 10  1  0  0  0
M  END
> <minimizedAffinity>
-6.59672

$$$$



 19 18  0  0  0  0  0  0  0  0999 V2000
  -49.5136   60.7867   64.2207 C   0  0  0  0  0  0  0  0  0  0  0  0
  -49.7118   60.3052   65.6514 C   0  0  0  0  0  0  0  0  0  0  0  0
  -48.3973   60.1196   66.3902 C   0  0  0  0  0  0  0  0  0  0  0  0
  -47.2722   60.8147   65.6411 C   0  0  0  0  0  0  0  0  0  0  0  0
  -46.1031   59.8558   65.5064 C   0  0  0  0  0  0  0  0  0  0  0  0
  -44.8503   60.5606   65.0109 C   0  0  0  0  0  0  0  0  0  0  0  0
  -43.6800   60.1511   65.8699 C   0  0  0  0  0  0  0  0  0  0  0  0
  -43.8237   60.0236   67.1015 O   0  0  0  0  0  0  0  0  0  0  0  0
  -42.5543   59.9382   65.3714 O   0  0  0  0  0  0  0  0  0  0  0  0
  -42.4263   60.0288   64.4477 H   0  0  0  0  0  0  0  0  0  0  0  0
  -50.1585   59.7558   63.3058 C   0  0  0  0  0  0  0  0  0  0  0  0
  -49.2510   58.5726   63.0689 C   0  0  0  0  0  0  0  0  0  0  0  0
  -49.4196   57.7567   61.8560 C   0  0  0  0  0  0  0  0  0  0  0  0
  -50.6302   57.9830   60.9857 C   0  0  0  0  0  0  0  0  0  0  0  0
  -50.2256   58.1143   59.5214 C   0  0  0  0  0  0  0  0  0  0  0  0
  -48.8565   57.4751   59.2906 C   0  0  0  0  0  0  0  0  0  0  0  0
  -47.8858   58.4445   58.6177 C   0  0  0  0  0  0  0  0  0  0  0  0
  -47.2157   57.8210   57.3907 C   0  0  0  0  0  0  0  0  0  0  0  0
  -48.1931   57.0508   56.5067 C   0  0  0  0  0  0  0  0  0  0  0  0
  7  8  2  0  0  0
  7  6  1  0  0  0
  7  9  1  0  0  0
  6  5  1  0  0  0
  5  4  1  0  0  0
  4  3  1  0  0  0
  3  2  1  0  0  0
  2  1  1  0  0  0
  1 11  1  0  0  0
 11 12  1  0  0  0
 12 13  2  0  0  0
 13 14  1  0  0  0
 14 15  1  0  0  0
 15 16  1  0  0  0
 16 17  1  0  0  0
 17 18  1  0  0  0
 18 19  1  0  0  0
  9 10  1  0  0  0
M  END
> <minimizedAffinity>
-6.58905

$$$$



 19 18  0  0  0  0  0  0  0  0999 V2000
  -48.9505   60.3346   65.8737 C   0  0  0  0  0  0  0  0  0  0  0  0
  -47.9697   59.2110   66.1793 C   0  0  0  0  0  0  0  0  0  0  0  0
  -46.5873   59.7275   66.5402 C   0  0  0  0  0  0  0  0  0  0  0  0
  -46.0043   60.5193   65.3812 C   0  0  0  0  0  0  0  0  0  0  0  0
  -44.5668   60.0843   65.1602 C   0  0  0  0  0  0  0  0  0  0  0  0
  -44.1073   59.0972   66.2214 C   0  0  0  0  0  0  0  0  0  0  0  0
  -43.6152   57.8404   65.5476 C   0  0  0  0  0  0  0  0  0  0  0  0
  -42.3966   57.5789   65.5273 O   0  0  0  0  0  0  0  0  0  0  0  0
  -44.4089   57.0472   64.9984 O   0  0  0  0  0  0  0  0  0  0  0  0
  -45.3287   57.2263   65.0031 H   0  0  0  0  0  0  0  0  0  0  0  0
  -50.3014   59.6902   65.5988 C   0  0  0  0  0  0  0  0  0  0  0  0
  -51.0622   60.4242   64.5208 C   0  0  0  0  0  0  0  0  0  0  0  0
  -51.0870   59.8857   63.1516 C   0  0  0  0  0  0  0  0  0  0  0  0
  -50.1759   58.7359   62.8021 C   0  0  0  0  0  0  0  0  0  0  0  0
  -50.5796   58.1126   61.4704 C   0  0  0  0  0  0  0  0  0  0  0  0
  -49.7545   58.7130   60.3324 C   0  0  0  0  0  0  0  0  0  0  0  0
  -49.6169   57.7426   59.1602 C   0  0  0  0  0  0  0  0  0  0  0  0
  -48.8444   56.4804   59.5522 C   0  0  0  0  0  0  0  0  0  0  0  0
  -47.8185   56.0615   58.5024 C   0  0  0  0  0  0  0  0  0  0  0  0
  7  8  2  0  0  0
  7  6  1  0  0  0
  7  9  1  0  0  0
  6  5  1  0  0  0
  5  4  1  0  0  0
  4  3  1  0  0  0
  3  2  1  0  0  0
  2  1  1  0  0  0
  1 11  1  0  0  0
 11 12  1  0  0  0
 12 13  2  0  0  0
 13 14  1  0  0  0
 14 15  1  0  0  0
 15 16  1  0  0  0
 16 17  1  0  0  0
 17 18  1  0  0  0
 18 19  1  0  0  0
  9 10  1  0  0  0
M  END
> <minimizedAffinity>
-6.53743

$$$$



 19 18  0  0  0  0  0  0  0  0999 V2000
  -48.8630   58.5779   63.2984 C   0  0  0  0  0  0  0  0  0  0  0  0
  -50.2900   58.5788   62.7680 C   0  0  0  0  0  0  0  0  0  0  0  0
  -50.4150   57.8641   61.4332 C   0  0  0  0  0  0  0  0  0  0  0  0
  -49.1610   58.0817   60.6024 C   0  0  0  0  0  0  0  0  0  0  0  0
  -49.4559   57.7156   59.1590 C   0  0  0  0  0  0  0  0  0  0  0  0
  -48.2114   57.8030   58.2899 C   0  0  0  0  0  0  0  0  0  0  0  0
  -48.2561   56.7103   57.2510 C   0  0  0  0  0  0  0  0  0  0  0  0
  -47.9232   55.5476   57.5528 O   0  0  0  0  0  0  0  0  0  0  0  0
  -48.6190   56.9460   56.0789 O   0  0  0  0  0  0  0  0  0  0  0  0
  -48.8730   57.8136   55.8327 H   0  0  0  0  0  0  0  0  0  0  0  0
  -48.9244   58.1389   64.7542 C   0  0  0  0  0  0  0  0  0  0  0  0
  -48.1394   59.0654   65.6514 C   0  0  0  0  0  0  0  0  0  0  0  0
  -46.7288   58.7696   65.9482 C   0  0  0  0  0  0  0  0  0  0  0  0
  -46.1584   57.4370   65.5320 C   0  0  0  0  0  0  0  0  0  0  0  0
  -44.8599   57.6244   64.7551 C   0  0  0  0  0  0  0  0  0  0  0  0
  -44.0756   58.8122   65.3123 C   0  0  0  0  0  0  0  0  0  0  0  0
  -42.9139   58.3589   66.1952 C   0  0  0  0  0  0  0  0  0  0  0  0
  -41.8432   59.4445   66.3311 C   0  0  0  0  0  0  0  0  0  0  0  0
  -42.2849   60.6076   67.2155 C   0  0  0  0  0  0  0  0  0  0  0  0
  7  8  2  0  0  0
  7  6  1  0  0  0
  7  9  1  0  0  0
  6  5  1  0  0  0
  5  4  1  0  0  0
  4  3  1  0  0  0
  3  2  1  0  0  0
  2  1  1  0  0  0
  1 11  1  0  0  0
 11 12  1  0  0  0
 12 13  2  0  0  0
 13 14  1  0  0  0
 14 15  1  0  0  0
 15 16  1  0  0  0
 16 17  1  0  0  0
 17 18  1  0  0  0
 18 19  1  0  0  0
  9 10  1  0  0  0
M  END
> <minimizedAffinity>
-6.41994

$$$$



 19 18  0  0  0  0  0  0  0  0999 V2000
  -50.2867   59.4127   61.5253 C   0  0  0  0  0  0  0  0  0  0  0  0
  -50.6977   57.9855   61.1906 C   0  0  0  0  0  0  0  0  0  0  0  0
  -50.1954   57.5398   59.8278 C   0  0  0  0  0  0  0  0  0  0  0  0
  -49.3983   56.2523   59.9582 C   0  0  0  0  0  0  0  0  0  0  0  0
  -48.2513   56.2794   58.9642 C   0  0  0  0  0  0  0  0  0  0  0  0
  -48.2930   57.5223   58.0894 C   0  0  0  0  0  0  0  0  0  0  0  0
  -46.9714   58.2425   58.1903 C   0  0  0  0  0  0  0  0  0  0  0  0
  -46.1945   57.9930   59.1327 O   0  0  0  0  0  0  0  0  0  0  0  0
  -46.6339   59.0975   57.3441 O   0  0  0  0  0  0  0  0  0  0  0  0
  -47.2043   59.2989   56.6285 H   0  0  0  0  0  0  0  0  0  0  0  0
  -50.2034   59.5131   63.0414 C   0  0  0  0  0  0  0  0  0  0  0  0
  -49.2139   58.5267   63.6137 C   0  0  0  0  0  0  0  0  0  0  0  0
  -48.1988   58.9875   64.5743 C   0  0  0  0  0  0  0  0  0  0  0  0
  -48.0259   60.4685   64.8003 C   0  0  0  0  0  0  0  0  0  0  0  0
  -46.8656   60.7374   65.7523 C   0  0  0  0  0  0  0  0  0  0  0  0
  -45.6673   59.8610   65.3883 C   0  0  0  0  0  0  0  0  0  0  0  0
  -44.6576   59.7798   66.5322 C   0  0  0  0  0  0  0  0  0  0  0  0
  -43.2168   59.9106   66.0319 C   0  0  0  0  0  0  0  0  0  0  0  0
  -43.1261   60.5140   64.6327 C   0  0  0  0  0  0  0  0  0  0  0  0
  7  8  2  0  0  0
  7  6  1  0  0  0
  7  9  1  0  0  0
  6  5  1  0  0  0
  5  4  1  0  0  0
  4  3  1  0  0  0
  3  2  1  0  0  0
  2  1  1  0  0  0
  1 11  1  0  0  0
 11 12  1  0  0  0
 12 13  2  0  0  0
 13 14  1  0  0  0
 14 15  1  0  0  0
 15 16  1  0  0  0
 16 17  1  0  0  0
 17 18  1  0  0  0
 18 19  1  0  0  0
  9 10  1  0  0  0
M  END
> <minimizedAffinity>
-6.41771

$$$$
