


 37 36  0  0  0  0  0  0  0  0999 V2000
  -39.9769   61.5184   64.1342 O   0  0  0  0  0  0  0  0  0  0  0  0
  -39.7686   61.1032   65.2329 C   0  0  0  0  0  0  0  0  0  0  0  0
  -40.6791   60.1814   65.9760 C   0  0  0  0  0  0  0  0  0  0  0  0
  -41.7986   59.6329   65.1115 C   0  0  0  0  0  0  0  0  0  0  0  0
  -43.0569   59.3332   65.8971 C   0  0  0  0  0  0  0  0  0  0  0  0
  -44.3400   59.5400   65.1271 C   0  0  0  0  0  0  0  0  0  0  0  0
  -45.1023   58.2677   64.8583 C   0  0  0  0  0  0  0  0  0  0  0  0
  -46.4399   58.2433   65.5480 C   0  0  0  0  0  0  0  0  0  0  0  0
  -47.6212   58.5414   64.6729 C   0  0  0  0  0  0  0  0  0  0  0  0
  -47.9504   59.9726   64.6059 C   0  0  0  0  0  0  0  0  0  0  0  0
  -49.1413   60.5266   64.5470 C   0  0  0  0  0  0  0  0  0  0  0  0
  -50.4641   59.8524   64.5557 C   0  0  0  0  0  0  0  0  0  0  0  0
  -51.2998   60.0374   63.3057 C   0  0  0  0  0  0  0  0  0  0  0  0
  -50.6469   59.4611   62.0794 C   0  0  0  0  0  0  0  0  0  0  0  0
  -50.4293   57.9703   62.1238 C   0  0  0  0  0  0  0  0  0  0  0  0
  -50.9595   57.2683   60.8931 C   0  0  0  0  0  0  0  0  0  0  0  0
  -49.9173   56.5732   60.0621 C   0  0  0  0  0  0  0  0  0  0  0  0
  -49.1528   57.4945   59.1985 C   0  0  0  0  0  0  0  0  0  0  0  0
  -48.4450   56.8191   58.1127 C   0  0  0  0  0  0  0  0  0  0  0  0
  -38.6906   61.4160   65.9519 O   0  0  0  0  0  0  0  0  0  0  0  0
  -37.4011   61.0371   65.4212 C   0  0  0  0  0  0  0  0  0  0  0  0
  -36.4969   62.2412   65.5515 C   0  0  0  0  0  0  0  0  0  0  0  0
  -36.0510   62.3577   66.9027 O   0  0  0  0  0  0  0  0  0  0  0  0
  -35.5159   61.5826   67.1346 H   0  0  0  0  0  0  0  0  0  0  0  0
  -35.2860   62.2313   64.6502 C   0  0  0  0  0  0  0  0  0  0  0  0
  -34.2722   63.0736   65.2345 O   0  0  0  0  0  0  0  0  0  0  0  0
  -33.9674   64.4971   64.5941 P   0  0  0  0  0  0  0  0  0  0  0  0
  -33.5404   64.2621   63.2000 O   0  0  0  0  0  0  0  0  0  0  0  0
  -35.1492   65.3434   64.8515 O   0  0  0  0  0  0  0  0  0  0  0  0
  -35.9169   64.9772   64.3853 H   0  0  0  0  0  0  0  0  0  0  0  0
  -32.7486   65.1424   65.3784 O   0  0  0  0  0  0  0  0  0  0  0  0
  -31.7263   65.8613   64.6492 C   0  0  0  0  0  0  0  0  0  0  0  0
  -30.4521   65.0686   64.8326 C   0  0  0  0  0  0  0  0  0  0  0  0
  -29.7509   64.6258   63.5637 N   0  0  0  0  0  0  0  0  0  0  0  0
  -28.2664   64.7351   63.7021 C   0  0  0  0  0  0  0  0  0  0  0  0
  -30.1891   65.4877   62.4233 C   0  0  0  0  0  0  0  0  0  0  0  0
  -30.1005   63.2010   63.2688 C   0  0  0  0  0  0  0  0  0  0  0  0
 34 33  1  0  0  0
 34 35  1  0  0  0
 34 36  1  0  0  0
 34 37  1  0  0  0
 22 23  1  0  0  0
 22 25  1  0  0  0
 22 21  1  0  0  0
 27 26  1  0  0  0
 27 28  2  0  0  0
 27 31  1  0  0  0
 27 29  1  0  0  0
 25 26  1  0  0  0
 32 33  1  0  0  0
 32 31  1  0  0  0
 20 21  1  0  0  0
 20  2  1  0  0  0
  1  2  2  0  0  0
  2  3  1  0  0  0
  3  4  1  0  0  0
  4  5  1  0  0  0
  5  6  1  0  0  0
  6  7  1  0  0  0
  7  8  1  0  0  0
  8  9  1  0  0  0
  9 10  1  0  0  0
 10 11  2  0  0  0
 11 12  1  0  0  0
 12 13  1  0  0  0
 13 14  1  0  0  0
 14 15  1  0  0  0
 15 16  1  0  0  0
 16 17  1  0  0  0
 17 18  1  0  0  0
 18 19  1  0  0  0
 23 24  1  0  0  0
 29 30  1  0  0  0
M  CHG 1  28  -1
M  END
> <minimizedAffinity>
-7.84154

> <minimizedRMSD>
1.07278

> <CNNscore>
0.4934502244

> <CNNaffinity>
5.6853494644

> <CNN_VS>
2.8054370880

> <CNNaffinity_variance>
0.7634015083

$$$$
