


 37 36  0  0  0  0  0  0  0  0999 V2000
  -42.4550   57.1705   64.0823 O   0  0  0  0  0  0  0  0  0  0  0  0
  -41.7725   57.9665   64.6784 C   0  0  0  0  0  0  0  0  0  0  0  0
  -42.1703   58.6809   65.9334 C   0  0  0  0  0  0  0  0  0  0  0  0
  -43.5288   59.3637   65.8297 C   0  0  0  0  0  0  0  0  0  0  0  0
  -44.5623   58.8528   66.8188 C   0  0  0  0  0  0  0  0  0  0  0  0
  -45.0701   57.4585   66.4963 C   0  0  0  0  0  0  0  0  0  0  0  0
  -46.5811   57.3972   66.3529 C   0  0  0  0  0  0  0  0  0  0  0  0
  -47.2465   58.6966   66.7481 C   0  0  0  0  0  0  0  0  0  0  0  0
  -48.3451   59.1578   65.8120 C   0  0  0  0  0  0  0  0  0  0  0  0
  -47.9865   59.0821   64.3775 C   0  0  0  0  0  0  0  0  0  0  0  0
  -48.8146   58.8382   63.3827 C   0  0  0  0  0  0  0  0  0  0  0  0
  -50.2911   58.6259   63.4683 C   0  0  0  0  0  0  0  0  0  0  0  0
  -50.9412   58.8930   62.1098 C   0  0  0  0  0  0  0  0  0  0  0  0
  -51.2086   57.6587   61.2610 C   0  0  0  0  0  0  0  0  0  0  0  0
  -50.2919   57.4955   60.0546 C   0  0  0  0  0  0  0  0  0  0  0  0
  -49.0313   56.6900   60.3520 C   0  0  0  0  0  0  0  0  0  0  0  0
  -48.2443   56.3037   59.1098 C   0  0  0  0  0  0  0  0  0  0  0  0
  -48.3632   57.2662   57.9377 C   0  0  0  0  0  0  0  0  0  0  0  0
  -47.3172   57.0365   56.8905 C   0  0  0  0  0  0  0  0  0  0  0  0
  -40.5391   58.3241   64.3088 O   0  0  0  0  0  0  0  0  0  0  0  0
  -39.6542   58.8423   65.3262 C   0  0  0  0  0  0  0  0  0  0  0  0
  -38.9150   60.0746   64.8496 C   0  0  0  0  0  0  0  0  0  0  0  0
  -39.8245   61.0484   64.3195 O   0  0  0  0  0  0  0  0  0  0  0  0
  -40.4240   61.3467   65.0213 H   0  0  0  0  0  0  0  0  0  0  0  0
  -38.0796   60.7072   65.9378 C   0  0  0  0  0  0  0  0  0  0  0  0
  -37.6339   62.0354   65.5709 O   0  0  0  0  0  0  0  0  0  0  0  0
  -36.6749   62.5678   64.3992 P   0  0  0  0  0  0  0  0  0  0  0  0
  -36.5338   64.0817   64.5486 O   0  0  0  0  0  0  0  0  0  0  0  0
  -37.3144   62.2811   63.0965 O   0  0  0  0  0  0  0  0  0  0  0  0
  -38.1920   62.6935   63.0694 H   0  0  0  0  0  0  0  0  0  0  0  0
  -35.1812   61.8850   64.4870 O   0  0  0  0  0  0  0  0  0  0  0  0
  -34.8939   60.5050   64.8418 C   0  0  0  0  0  0  0  0  0  0  0  0
  -34.5573   59.7081   63.6058 C   0  0  0  0  0  0  0  0  0  0  0  0
  -35.2258   58.3525   63.4714 N   0  0  0  0  0  0  0  0  0  0  0  0
  -35.7799   57.9089   64.7872 C   0  0  0  0  0  0  0  0  0  0  0  0
  -34.2068   57.3608   63.0146 C   0  0  0  0  0  0  0  0  0  0  0  0
  -36.3441   58.4137   62.4702 C   0  0  0  0  0  0  0  0  0  0  0  0
 34 33  1  0  0  0
 34 35  1  0  0  0
 34 36  1  0  0  0
 34 37  1  0  0  0
 22 23  1  0  0  0
 22 25  1  0  0  0
 22 21  1  0  0  0
 27 26  1  0  0  0
 27 28  2  0  0  0
 27 31  1  0  0  0
 27 29  1  0  0  0
 25 26  1  0  0  0
 32 33  1  0  0  0
 32 31  1  0  0  0
 20 21  1  0  0  0
 20  2  1  0  0  0
  1  2  2  0  0  0
  2  3  1  0  0  0
  3  4  1  0  0  0
  4  5  1  0  0  0
  5  6  1  0  0  0
  6  7  1  0  0  0
  7  8  1  0  0  0
  8  9  1  0  0  0
  9 10  1  0  0  0
 10 11  2  0  0  0
 11 12  1  0  0  0
 12 13  1  0  0  0
 13 14  1  0  0  0
 14 15  1  0  0  0
 15 16  1  0  0  0
 16 17  1  0  0  0
 17 18  1  0  0  0
 18 19  1  0  0  0
 23 24  1  0  0  0
 29 30  1  0  0  0
M  CHG 1  28  -1
M  END
> <minimizedAffinity>
-7.70601

> <CNNscore>
0.8204262257

> <CNNaffinity>
6.8394165039

> <CNN_VS>
5.6112365723

> <CNNaffinity_variance>
0.1946955770

$$$$



 37 36  0  0  0  0  0  0  0  0999 V2000
  -42.5963   60.8999   63.8853 O   0  0  0  0  0  0  0  0  0  0  0  0
  -42.6480   59.7886   64.3511 C   0  0  0  0  0  0  0  0  0  0  0  0
  -43.8406   58.8836   64.3033 C   0  0  0  0  0  0  0  0  0  0  0  0
  -44.9744   59.3373   65.2151 C   0  0  0  0  0  0  0  0  0  0  0  0
  -45.9842   60.2550   64.5475 C   0  0  0  0  0  0  0  0  0  0  0  0
  -47.2619   59.5472   64.1320 C   0  0  0  0  0  0  0  0  0  0  0  0
  -47.5513   58.3104   64.9651 C   0  0  0  0  0  0  0  0  0  0  0  0
  -48.6832   58.5316   65.9435 C   0  0  0  0  0  0  0  0  0  0  0  0
  -50.0685   58.4951   65.3306 C   0  0  0  0  0  0  0  0  0  0  0  0
  -50.6565   59.8322   65.0888 C   0  0  0  0  0  0  0  0  0  0  0  0
  -51.2176   60.2420   63.9698 C   0  0  0  0  0  0  0  0  0  0  0  0
  -51.4233   59.4497   62.7198 C   0  0  0  0  0  0  0  0  0  0  0  0
  -50.1543   59.4739   61.8662 C   0  0  0  0  0  0  0  0  0  0  0  0
  -49.6645   58.1151   61.3875 C   0  0  0  0  0  0  0  0  0  0  0  0
  -50.3040   57.6178   60.0968 C   0  0  0  0  0  0  0  0  0  0  0  0
  -49.3147   57.4654   58.9460 C   0  0  0  0  0  0  0  0  0  0  0  0
  -48.2244   56.4385   59.2078 C   0  0  0  0  0  0  0  0  0  0  0  0
  -47.4257   56.0105   57.9858 C   0  0  0  0  0  0  0  0  0  0  0  0
  -47.4622   57.0254   56.8848 C   0  0  0  0  0  0  0  0  0  0  0  0
  -41.6311   59.1880   64.9763 O   0  0  0  0  0  0  0  0  0  0  0  0
  -40.4824   58.8105   64.1859 C   0  0  0  0  0  0  0  0  0  0  0  0
  -39.3304   59.7739   64.3780 C   0  0  0  0  0  0  0  0  0  0  0  0
  -39.6351   61.0594   63.8205 O   0  0  0  0  0  0  0  0  0  0  0  0
  -40.3914   61.4446   64.2902 H   0  0  0  0  0  0  0  0  0  0  0  0
  -38.9441   59.9343   65.8297 C   0  0  0  0  0  0  0  0  0  0  0  0
  -38.3718   61.2383   66.0935 O   0  0  0  0  0  0  0  0  0  0  0  0
  -36.9765   61.9107   65.6729 P   0  0  0  0  0  0  0  0  0  0  0  0
  -36.4136   62.6433   66.8898 O   0  0  0  0  0  0  0  0  0  0  0  0
  -37.2309   62.9008   64.6037 O   0  0  0  0  0  0  0  0  0  0  0  0
  -37.8753   63.5552   64.9157 H   0  0  0  0  0  0  0  0  0  0  0  0
  -35.8866   60.7800   65.1840 O   0  0  0  0  0  0  0  0  0  0  0  0
  -34.4402   60.9209   65.2138 C   0  0  0  0  0  0  0  0  0  0  0  0
  -33.9561   61.5975   63.9552 C   0  0  0  0  0  0  0  0  0  0  0  0
  -33.3143   62.9621   64.1240 N   0  0  0  0  0  0  0  0  0  0  0  0
  -33.2159   63.3191   65.5724 C   0  0  0  0  0  0  0  0  0  0  0  0
  -34.1619   63.9774   63.4303 C   0  0  0  0  0  0  0  0  0  0  0  0
  -31.9359   62.9732   63.5271 C   0  0  0  0  0  0  0  0  0  0  0  0
 34 33  1  0  0  0
 34 35  1  0  0  0
 34 36  1  0  0  0
 34 37  1  0  0  0
 22 23  1  0  0  0
 22 25  1  0  0  0
 22 21  1  0  0  0
 27 26  1  0  0  0
 27 28  2  0  0  0
 27 31  1  0  0  0
 27 29  1  0  0  0
 25 26  1  0  0  0
 32 33  1  0  0  0
 32 31  1  0  0  0
 20 21  1  0  0  0
 20  2  1  0  0  0
  1  2  2  0  0  0
  2  3  1  0  0  0
  3  4  1  0  0  0
  4  5  1  0  0  0
  5  6  1  0  0  0
  6  7  1  0  0  0
  7  8  1  0  0  0
  8  9  1  0  0  0
  9 10  1  0  0  0
 10 11  2  0  0  0
 11 12  1  0  0  0
 12 13  1  0  0  0
 13 14  1  0  0  0
 14 15  1  0  0  0
 15 16  1  0  0  0
 16 17  1  0  0  0
 17 18  1  0  0  0
 18 19  1  0  0  0
 23 24  1  0  0  0
 29 30  1  0  0  0
M  CHG 1  28  -1
M  END
> <minimizedAffinity>
-7.99046

> <CNNscore>
0.7356467843

> <CNNaffinity>
6.2900514603

> <CNN_VS>
4.6272559166

> <CNNaffinity_variance>
0.1087070480

$$$$



 37 36  0  0  0  0  0  0  0  0999 V2000
  -41.3573   55.3245   62.6737 O   0  0  0  0  0  0  0  0  0  0  0  0
  -41.5023   56.1098   63.5776 C   0  0  0  0  0  0  0  0  0  0  0  0
  -42.5224   55.9966   64.6687 C   0  0  0  0  0  0  0  0  0  0  0  0
  -42.8899   57.3400   65.2875 C   0  0  0  0  0  0  0  0  0  0  0  0
  -44.3550   57.7144   65.1439 C   0  0  0  0  0  0  0  0  0  0  0  0
  -45.1893   57.3701   66.3652 C   0  0  0  0  0  0  0  0  0  0  0  0
  -46.4305   58.2358   66.4975 C   0  0  0  0  0  0  0  0  0  0  0  0
  -46.4677   59.3436   65.4684 C   0  0  0  0  0  0  0  0  0  0  0  0
  -47.5497   59.1979   64.4177 C   0  0  0  0  0  0  0  0  0  0  0  0
  -48.6737   58.3249   64.8262 C   0  0  0  0  0  0  0  0  0  0  0  0
  -49.9549   58.6160   64.7344 C   0  0  0  0  0  0  0  0  0  0  0  0
  -50.5603   59.8588   64.1672 C   0  0  0  0  0  0  0  0  0  0  0  0
  -51.3937   59.5212   62.9298 C   0  0  0  0  0  0  0  0  0  0  0  0
  -50.5995   59.0786   61.7097 C   0  0  0  0  0  0  0  0  0  0  0  0
  -50.9862   57.7153   61.1491 C   0  0  0  0  0  0  0  0  0  0  0  0
  -49.8456   57.0091   60.4236 C   0  0  0  0  0  0  0  0  0  0  0  0
  -49.5947   57.5348   59.0191 C   0  0  0  0  0  0  0  0  0  0  0  0
  -48.3106   57.0512   58.3622 C   0  0  0  0  0  0  0  0  0  0  0  0
  -47.6512   55.9431   59.1245 C   0  0  0  0  0  0  0  0  0  0  0  0
  -40.7561   57.2050   63.7482 O   0  0  0  0  0  0  0  0  0  0  0  0
  -40.5551   58.0682   62.6075 C   0  0  0  0  0  0  0  0  0  0  0  0
  -40.2935   59.4989   63.0281 C   0  0  0  0  0  0  0  0  0  0  0  0
  -41.5177   60.1749   63.3455 O   0  0  0  0  0  0  0  0  0  0  0  0
  -41.9386   59.7421   64.1047 H   0  0  0  0  0  0  0  0  0  0  0  0
  -39.3474   59.5948   64.2020 C   0  0  0  0  0  0  0  0  0  0  0  0
  -38.0168   59.9914   63.7900 O   0  0  0  0  0  0  0  0  0  0  0  0
  -37.1642   61.3291   64.0339 P   0  0  0  0  0  0  0  0  0  0  0  0
  -37.5617   62.3495   62.9687 O   0  0  0  0  0  0  0  0  0  0  0  0
  -35.7285   61.0124   63.8698 O   0  0  0  0  0  0  0  0  0  0  0  0
  -35.5791   60.6366   62.9881 H   0  0  0  0  0  0  0  0  0  0  0  0
  -37.4617   61.9700   65.5191 O   0  0  0  0  0  0  0  0  0  0  0  0
  -36.4647   62.2720   66.5329 C   0  0  0  0  0  0  0  0  0  0  0  0
  -35.9963   63.6994   66.3948 C   0  0  0  0  0  0  0  0  0  0  0  0
  -34.5232   63.9023   66.0924 N   0  0  0  0  0  0  0  0  0  0  0  0
  -33.7532   62.6527   66.3763 C   0  0  0  0  0  0  0  0  0  0  0  0
  -34.0043   65.0003   66.9616 C   0  0  0  0  0  0  0  0  0  0  0  0
  -34.3281   64.2750   64.6503 C   0  0  0  0  0  0  0  0  0  0  0  0
 34 33  1  0  0  0
 34 35  1  0  0  0
 34 36  1  0  0  0
 34 37  1  0  0  0
 22 23  1  0  0  0
 22 25  1  0  0  0
 22 21  1  0  0  0
 27 26  1  0  0  0
 27 28  2  0  0  0
 27 31  1  0  0  0
 27 29  1  0  0  0
 25 26  1  0  0  0
 32 33  1  0  0  0
 32 31  1  0  0  0
 20 21  1  0  0  0
 20  2  1  0  0  0
  1  2  2  0  0  0
  2  3  1  0  0  0
  3  4  1  0  0  0
  4  5  1  0  0  0
  5  6  1  0  0  0
  6  7  1  0  0  0
  7  8  1  0  0  0
  8  9  1  0  0  0
  9 10  1  0  0  0
 10 11  2  0  0  0
 11 12  1  0  0  0
 12 13  1  0  0  0
 13 14  1  0  0  0
 14 15  1  0  0  0
 15 16  1  0  0  0
 16 17  1  0  0  0
 17 18  1  0  0  0
 18 19  1  0  0  0
 23 24  1  0  0  0
 29 30  1  0  0  0
M  CHG 1  28  -1
M  END
> <minimizedAffinity>
-7.84853

> <CNNscore>
0.7080544829

> <CNNaffinity>
6.5482549667

> <CNN_VS>
4.6365213394

> <CNNaffinity_variance>
0.3135755658

$$$$



 37 36  0  0  0  0  0  0  0  0999 V2000
  -39.7618   57.5125   62.3939 O   0  0  0  0  0  0  0  0  0  0  0  0
  -39.6836   57.8288   63.5551 C   0  0  0  0  0  0  0  0  0  0  0  0
  -40.5652   57.3187   64.6535 C   0  0  0  0  0  0  0  0  0  0  0  0
  -41.7794   58.2041   64.9076 C   0  0  0  0  0  0  0  0  0  0  0  0
  -42.1680   58.3269   66.3710 C   0  0  0  0  0  0  0  0  0  0  0  0
  -43.5118   59.0012   66.5848 C   0  0  0  0  0  0  0  0  0  0  0  0
  -44.6758   58.0258   66.5500 C   0  0  0  0  0  0  0  0  0  0  0  0
  -45.9861   58.6855   66.9178 C   0  0  0  0  0  0  0  0  0  0  0  0
  -46.6338   59.4777   65.8003 C   0  0  0  0  0  0  0  0  0  0  0  0
  -47.8167   60.2612   66.2234 C   0  0  0  0  0  0  0  0  0  0  0  0
  -49.0734   59.8766   66.1363 C   0  0  0  0  0  0  0  0  0  0  0  0
  -49.5836   58.5643   65.6361 C   0  0  0  0  0  0  0  0  0  0  0  0
  -50.3872   58.7671   64.3505 C   0  0  0  0  0  0  0  0  0  0  0  0
  -49.5601   58.9396   63.0850 C   0  0  0  0  0  0  0  0  0  0  0  0
  -50.3685   59.0681   61.7996 C   0  0  0  0  0  0  0  0  0  0  0  0
  -50.9968   57.7561   61.3413 C   0  0  0  0  0  0  0  0  0  0  0  0
  -50.1869   57.0267   60.2812 C   0  0  0  0  0  0  0  0  0  0  0  0
  -49.4023   57.9197   59.3319 C   0  0  0  0  0  0  0  0  0  0  0  0
  -48.5663   57.1421   58.3624 C   0  0  0  0  0  0  0  0  0  0  0  0
  -38.7787   58.6831   64.0418 O   0  0  0  0  0  0  0  0  0  0  0  0
  -37.4614   58.1714   64.3415 C   0  0  0  0  0  0  0  0  0  0  0  0
  -36.4088   58.7702   63.4328 C   0  0  0  0  0  0  0  0  0  0  0  0
  -37.0116   59.4432   62.3192 O   0  0  0  0  0  0  0  0  0  0  0  0
  -37.5459   60.1861   62.6410 H   0  0  0  0  0  0  0  0  0  0  0  0
  -35.4899   59.7242   64.1593 C   0  0  0  0  0  0  0  0  0  0  0  0
  -36.1582   60.3782   65.2652 O   0  0  0  0  0  0  0  0  0  0  0  0
  -37.0300   61.7226   65.3579 P   0  0  0  0  0  0  0  0  0  0  0  0
  -38.1650   61.4878   66.3534 O   0  0  0  0  0  0  0  0  0  0  0  0
  -37.6191   61.9979   64.0292 O   0  0  0  0  0  0  0  0  0  0  0  0
  -38.1476   61.2356   63.7455 H   0  0  0  0  0  0  0  0  0  0  0  0
  -36.1238   62.9931   65.8772 O   0  0  0  0  0  0  0  0  0  0  0  0
  -34.7282   62.9370   66.2798 C   0  0  0  0  0  0  0  0  0  0  0  0
  -34.0876   64.2948   66.1308 C   0  0  0  0  0  0  0  0  0  0  0  0
  -33.1869   64.4897   64.9252 N   0  0  0  0  0  0  0  0  0  0  0  0
  -33.3887   63.3865   63.9366 C   0  0  0  0  0  0  0  0  0  0  0  0
  -31.7657   64.4766   65.3840 C   0  0  0  0  0  0  0  0  0  0  0  0
  -33.4812   65.8014   64.2547 C   0  0  0  0  0  0  0  0  0  0  0  0
 34 33  1  0  0  0
 34 35  1  0  0  0
 34 36  1  0  0  0
 34 37  1  0  0  0
 22 23  1  0  0  0
 22 25  1  0  0  0
 22 21  1  0  0  0
 27 26  1  0  0  0
 27 28  2  0  0  0
 27 31  1  0  0  0
 27 29  1  0  0  0
 25 26  1  0  0  0
 32 33  1  0  0  0
 32 31  1  0  0  0
 20 21  1  0  0  0
 20  2  1  0  0  0
  1  2  2  0  0  0
  2  3  1  0  0  0
  3  4  1  0  0  0
  4  5  1  0  0  0
  5  6  1  0  0  0
  6  7  1  0  0  0
  7  8  1  0  0  0
  8  9  1  0  0  0
  9 10  1  0  0  0
 10 11  2  0  0  0
 11 12  1  0  0  0
 12 13  1  0  0  0
 13 14  1  0  0  0
 14 15  1  0  0  0
 15 16  1  0  0  0
 16 17  1  0  0  0
 17 18  1  0  0  0
 18 19  1  0  0  0
 23 24  1  0  0  0
 29 30  1  0  0  0
M  CHG 1  28  -1
M  END
> <minimizedAffinity>
-7.51660

> <CNNscore>
0.6839113832

> <CNNaffinity>
6.2267522812

> <CNN_VS>
4.2585468292

> <CNNaffinity_variance>
0.1261752099

$$$$



 37 36  0  0  0  0  0  0  0  0999 V2000
  -44.4711   60.3703   63.7369 O   0  0  0  0  0  0  0  0  0  0  0  0
  -43.7649   59.4036   63.8826 C   0  0  0  0  0  0  0  0  0  0  0  0
  -44.2386   58.0331   64.2586 C   0  0  0  0  0  0  0  0  0  0  0  0
  -44.2390   57.7909   65.7633 C   0  0  0  0  0  0  0  0  0  0  0  0
  -45.6218   57.7617   66.3913 C   0  0  0  0  0  0  0  0  0  0  0  0
  -46.0024   59.0628   67.0757 C   0  0  0  0  0  0  0  0  0  0  0  0
  -46.9173   59.9313   66.2295 C   0  0  0  0  0  0  0  0  0  0  0  0
  -47.5618   59.1551   65.1028 C   0  0  0  0  0  0  0  0  0  0  0  0
  -48.0853   60.0062   63.9637 C   0  0  0  0  0  0  0  0  0  0  0  0
  -49.4573   60.5207   64.1761 C   0  0  0  0  0  0  0  0  0  0  0  0
  -50.5762   59.8847   63.8965 C   0  0  0  0  0  0  0  0  0  0  0  0
  -50.7160   58.5022   63.3471 C   0  0  0  0  0  0  0  0  0  0  0  0
  -50.9585   58.5573   61.8379 C   0  0  0  0  0  0  0  0  0  0  0  0
  -49.8206   58.0320   60.9750 C   0  0  0  0  0  0  0  0  0  0  0  0
  -50.0210   58.1981   59.4735 C   0  0  0  0  0  0  0  0  0  0  0  0
  -49.1219   57.2953   58.6353 C   0  0  0  0  0  0  0  0  0  0  0  0
  -48.2180   56.3940   59.4614 C   0  0  0  0  0  0  0  0  0  0  0  0
  -47.0803   55.7347   58.6964 C   0  0  0  0  0  0  0  0  0  0  0  0
  -47.0255   56.1578   57.2606 C   0  0  0  0  0  0  0  0  0  0  0  0
  -42.4391   59.4096   63.7157 O   0  0  0  0  0  0  0  0  0  0  0  0
  -41.8790   58.5087   62.7352 C   0  0  0  0  0  0  0  0  0  0  0  0
  -40.4934   58.9415   62.3051 C   0  0  0  0  0  0  0  0  0  0  0  0
  -40.3417   58.8455   60.8824 O   0  0  0  0  0  0  0  0  0  0  0  0
  -40.9617   59.4530   60.4495 H   0  0  0  0  0  0  0  0  0  0  0  0
  -40.1590   60.3452   62.7527 C   0  0  0  0  0  0  0  0  0  0  0  0
  -39.0706   60.3606   63.7079 O   0  0  0  0  0  0  0  0  0  0  0  0
  -39.0173   60.0924   65.2894 P   0  0  0  0  0  0  0  0  0  0  0  0
  -38.2614   58.7861   65.5269 O   0  0  0  0  0  0  0  0  0  0  0  0
  -40.4003   59.9333   65.7898 O   0  0  0  0  0  0  0  0  0  0  0  0
  -40.8373   59.2130   65.3091 H   0  0  0  0  0  0  0  0  0  0  0  0
  -38.2390   61.3065   66.0801 O   0  0  0  0  0  0  0  0  0  0  0  0
  -36.8234   61.3402   66.4086 C   0  0  0  0  0  0  0  0  0  0  0  0
  -36.0258   61.8373   65.2284 C   0  0  0  0  0  0  0  0  0  0  0  0
  -35.6414   63.3052   65.2410 N   0  0  0  0  0  0  0  0  0  0  0  0
  -36.3617   64.0447   64.1595 C   0  0  0  0  0  0  0  0  0  0  0  0
  -34.1704   63.4155   65.0078 C   0  0  0  0  0  0  0  0  0  0  0  0
  -35.9834   63.9278   66.5647 C   0  0  0  0  0  0  0  0  0  0  0  0
 34 33  1  0  0  0
 34 35  1  0  0  0
 34 36  1  0  0  0
 34 37  1  0  0  0
 22 23  1  0  0  0
 22 25  1  0  0  0
 22 21  1  0  0  0
 27 26  1  0  0  0
 27 28  2  0  0  0
 27 31  1  0  0  0
 27 29  1  0  0  0
 25 26  1  0  0  0
 32 33  1  0  0  0
 32 31  1  0  0  0
 20 21  1  0  0  0
 20  2  1  0  0  0
  1  2  2  0  0  0
  2  3  1  0  0  0
  3  4  1  0  0  0
  4  5  1  0  0  0
  5  6  1  0  0  0
  6  7  1  0  0  0
  7  8  1  0  0  0
  8  9  1  0  0  0
  9 10  1  0  0  0
 10 11  2  0  0  0
 11 12  1  0  0  0
 12 13  1  0  0  0
 13 14  1  0  0  0
 14 15  1  0  0  0
 15 16  1  0  0  0
 16 17  1  0  0  0
 17 18  1  0  0  0
 18 19  1  0  0  0
 23 24  1  0  0  0
 29 30  1  0  0  0
M  CHG 1  28  -1
M  END
> <minimizedAffinity>
-7.63803

> <CNNscore>
0.6455115080

> <CNNaffinity>
6.5062508583

> <CNN_VS>
4.1998596191

> <CNNaffinity_variance>
0.2025754452

$$$$



 37 36  0  0  0  0  0  0  0  0999 V2000
  -44.2137   61.4614   63.0605 O   0  0  0  0  0  0  0  0  0  0  0  0
  -44.0175   60.2848   63.2386 C   0  0  0  0  0  0  0  0  0  0  0  0
  -44.9033   59.3679   64.0251 C   0  0  0  0  0  0  0  0  0  0  0  0
  -45.4459   60.0052   65.2987 C   0  0  0  0  0  0  0  0  0  0  0  0
  -45.1313   59.2316   66.5676 C   0  0  0  0  0  0  0  0  0  0  0  0
  -46.3548   58.6033   67.2113 C   0  0  0  0  0  0  0  0  0  0  0  0
  -46.8497   57.3745   66.4679 C   0  0  0  0  0  0  0  0  0  0  0  0
  -48.3036   57.4945   66.0686 C   0  0  0  0  0  0  0  0  0  0  0  0
  -48.5379   58.0957   64.6976 C   0  0  0  0  0  0  0  0  0  0  0  0
  -49.1160   59.4584   64.7273 C   0  0  0  0  0  0  0  0  0  0  0  0
  -49.6552   60.0947   63.7079 C   0  0  0  0  0  0  0  0  0  0  0  0
  -49.8418   59.5789   62.3180 C   0  0  0  0  0  0  0  0  0  0  0  0
  -51.1383   58.7726   62.2251 C   0  0  0  0  0  0  0  0  0  0  0  0
  -51.1127   57.6072   61.2471 C   0  0  0  0  0  0  0  0  0  0  0  0
  -49.9991   57.6623   60.2083 C   0  0  0  0  0  0  0  0  0  0  0  0
  -48.9749   56.5415   60.3531 C   0  0  0  0  0  0  0  0  0  0  0  0
  -48.1974   56.2540   59.0784 C   0  0  0  0  0  0  0  0  0  0  0  0
  -48.3463   57.2921   57.9764 C   0  0  0  0  0  0  0  0  0  0  0  0
  -47.4800   57.0051   56.7887 C   0  0  0  0  0  0  0  0  0  0  0  0
  -42.9734   59.6138   62.7436 O   0  0  0  0  0  0  0  0  0  0  0  0
  -42.4578   60.0225   61.4575 C   0  0  0  0  0  0  0  0  0  0  0  0
  -41.0788   60.6360   61.5771 C   0  0  0  0  0  0  0  0  0  0  0  0
  -40.7080   60.8065   62.9518 O   0  0  0  0  0  0  0  0  0  0  0  0
  -40.6569   59.9391   63.3829 H   0  0  0  0  0  0  0  0  0  0  0  0
  -40.0196   59.8252   60.8677 C   0  0  0  0  0  0  0  0  0  0  0  0
  -39.9962   58.4517   61.3261 O   0  0  0  0  0  0  0  0  0  0  0  0
  -39.3047   57.7467   62.5913 P   0  0  0  0  0  0  0  0  0  0  0  0
  -38.5135   56.5391   62.0916 O   0  0  0  0  0  0  0  0  0  0  0  0
  -40.3649   57.2690   63.5057 O   0  0  0  0  0  0  0  0  0  0  0  0
  -40.9572   56.6676   63.0278 H   0  0  0  0  0  0  0  0  0  0  0  0
  -38.2760   58.7716   63.3637 O   0  0  0  0  0  0  0  0  0  0  0  0
  -37.2811   58.3950   64.3543 C   0  0  0  0  0  0  0  0  0  0  0  0
  -35.9425   58.1791   63.6928 C   0  0  0  0  0  0  0  0  0  0  0  0
  -34.7758   58.9730   64.2505 N   0  0  0  0  0  0  0  0  0  0  0  0
  -35.2634   60.2075   64.9386 C   0  0  0  0  0  0  0  0  0  0  0  0
  -33.8831   59.3678   63.1201 C   0  0  0  0  0  0  0  0  0  0  0  0
  -33.9976   58.1454   65.2334 C   0  0  0  0  0  0  0  0  0  0  0  0
 34 33  1  0  0  0
 34 35  1  0  0  0
 34 36  1  0  0  0
 34 37  1  0  0  0
 22 23  1  0  0  0
 22 25  1  0  0  0
 22 21  1  0  0  0
 27 26  1  0  0  0
 27 28  2  0  0  0
 27 31  1  0  0  0
 27 29  1  0  0  0
 25 26  1  0  0  0
 32 33  1  0  0  0
 32 31  1  0  0  0
 20 21  1  0  0  0
 20  2  1  0  0  0
  1  2  2  0  0  0
  2  3  1  0  0  0
  3  4  1  0  0  0
  4  5  1  0  0  0
  5  6  1  0  0  0
  6  7  1  0  0  0
  7  8  1  0  0  0
  8  9  1  0  0  0
  9 10  1  0  0  0
 10 11  2  0  0  0
 11 12  1  0  0  0
 12 13  1  0  0  0
 13 14  1  0  0  0
 14 15  1  0  0  0
 15 16  1  0  0  0
 16 17  1  0  0  0
 17 18  1  0  0  0
 18 19  1  0  0  0
 23 24  1  0  0  0
 29 30  1  0  0  0
M  CHG 1  28  -1
M  END
> <minimizedAffinity>
-7.51136

> <CNNscore>
0.6452074647

> <CNNaffinity>
6.7099599838

> <CNN_VS>
4.3293161392

> <CNNaffinity_variance>
0.0840434358

$$$$



 37 36  0  0  0  0  0  0  0  0999 V2000
  -41.0274   60.8503   64.4702 O   0  0  0  0  0  0  0  0  0  0  0  0
  -40.6032   60.3540   65.4843 C   0  0  0  0  0  0  0  0  0  0  0  0
  -41.1194   59.0977   66.1160 C   0  0  0  0  0  0  0  0  0  0  0  0
  -42.5988   58.8536   65.8433 C   0  0  0  0  0  0  0  0  0  0  0  0
  -43.5315   59.4296   66.8949 C   0  0  0  0  0  0  0  0  0  0  0  0
  -45.0001   59.1740   66.6053 C   0  0  0  0  0  0  0  0  0  0  0  0
  -45.4918   59.8925   65.3605 C   0  0  0  0  0  0  0  0  0  0  0  0
  -46.3634   59.0086   64.4965 C   0  0  0  0  0  0  0  0  0  0  0  0
  -47.7895   59.4924   64.3288 C   0  0  0  0  0  0  0  0  0  0  0  0
  -48.8102   58.5520   64.8448 C   0  0  0  0  0  0  0  0  0  0  0  0
  -50.1143   58.6669   64.7004 C   0  0  0  0  0  0  0  0  0  0  0  0
  -50.8501   59.7350   63.9584 C   0  0  0  0  0  0  0  0  0  0  0  0
  -51.2909   59.2164   62.5887 C   0  0  0  0  0  0  0  0  0  0  0  0
  -50.5352   57.9981   62.0785 C   0  0  0  0  0  0  0  0  0  0  0  0
  -50.8706   57.5832   60.6511 C   0  0  0  0  0  0  0  0  0  0  0  0
  -50.0100   58.2733   59.5979 C   0  0  0  0  0  0  0  0  0  0  0  0
  -49.1532   57.3165   58.7843 C   0  0  0  0  0  0  0  0  0  0  0  0
  -48.3895   56.2781   59.5924 C   0  0  0  0  0  0  0  0  0  0  0  0
  -47.1387   55.8171   58.9092 C   0  0  0  0  0  0  0  0  0  0  0  0
  -39.5883   60.8517   66.1969 O   0  0  0  0  0  0  0  0  0  0  0  0
  -38.2824   60.2621   66.0129 C   0  0  0  0  0  0  0  0  0  0  0  0
  -37.3195   61.2291   65.3573 C   0  0  0  0  0  0  0  0  0  0  0  0
  -37.3409   62.5033   66.0150 O   0  0  0  0  0  0  0  0  0  0  0  0
  -37.0389   62.3995   66.9309 H   0  0  0  0  0  0  0  0  0  0  0  0
  -35.9031   60.7045   65.3240 C   0  0  0  0  0  0  0  0  0  0  0  0
  -35.6333   59.9601   64.1114 O   0  0  0  0  0  0  0  0  0  0  0  0
  -35.6119   58.3875   63.7913 P   0  0  0  0  0  0  0  0  0  0  0  0
  -34.8887   57.6774   64.9346 O   0  0  0  0  0  0  0  0  0  0  0  0
  -34.8484   58.1683   62.5434 O   0  0  0  0  0  0  0  0  0  0  0  0
  -33.9562   58.5358   62.6414 H   0  0  0  0  0  0  0  0  0  0  0  0
  -37.1344   57.7777   63.6673 O   0  0  0  0  0  0  0  0  0  0  0  0
  -37.8372   57.4842   62.4293 C   0  0  0  0  0  0  0  0  0  0  0  0
  -39.1959   58.1400   62.4329 C   0  0  0  0  0  0  0  0  0  0  0  0
  -39.7699   58.5156   61.0794 N   0  0  0  0  0  0  0  0  0  0  0  0
  -38.7630   58.2800   59.9996 C   0  0  0  0  0  0  0  0  0  0  0  0
  -40.1304   59.9648   61.0992 C   0  0  0  0  0  0  0  0  0  0  0  0
  -40.9973   57.7016   60.7837 C   0  0  0  0  0  0  0  0  0  0  0  0
 34 33  1  0  0  0
 34 35  1  0  0  0
 34 36  1  0  0  0
 34 37  1  0  0  0
 22 23  1  0  0  0
 22 25  1  0  0  0
 22 21  1  0  0  0
 27 26  1  0  0  0
 27 28  2  0  0  0
 27 31  1  0  0  0
 27 29  1  0  0  0
 25 26  1  0  0  0
 32 33  1  0  0  0
 32 31  1  0  0  0
 20 21  1  0  0  0
 20  2  1  0  0  0
  1  2  2  0  0  0
  2  3  1  0  0  0
  3  4  1  0  0  0
  4  5  1  0  0  0
  5  6  1  0  0  0
  6  7  1  0  0  0
  7  8  1  0  0  0
  8  9  1  0  0  0
  9 10  1  0  0  0
 10 11  2  0  0  0
 11 12  1  0  0  0
 12 13  1  0  0  0
 13 14  1  0  0  0
 14 15  1  0  0  0
 15 16  1  0  0  0
 16 17  1  0  0  0
 17 18  1  0  0  0
 18 19  1  0  0  0
 23 24  1  0  0  0
 29 30  1  0  0  0
M  CHG 1  28  -1
M  END
> <minimizedAffinity>
-8.17657

> <CNNscore>
0.6307656169

> <CNNaffinity>
6.8261742592

> <CNN_VS>
4.3057160378

> <CNNaffinity_variance>
0.0697088316

$$$$



 37 36  0  0  0  0  0  0  0  0999 V2000
  -44.0268   59.8407   63.0248 O   0  0  0  0  0  0  0  0  0  0  0  0
  -43.5214   59.1024   63.8336 C   0  0  0  0  0  0  0  0  0  0  0  0
  -44.2479   58.4028   64.9411 C   0  0  0  0  0  0  0  0  0  0  0  0
  -44.6309   59.3314   66.0873 C   0  0  0  0  0  0  0  0  0  0  0  0
  -46.1041   59.2946   66.4559 C   0  0  0  0  0  0  0  0  0  0  0  0
  -46.9959   58.7962   65.3324 C   0  0  0  0  0  0  0  0  0  0  0  0
  -48.0097   57.7639   65.7949 C   0  0  0  0  0  0  0  0  0  0  0  0
  -49.4336   58.2461   65.6289 C   0  0  0  0  0  0  0  0  0  0  0  0
  -49.5689   59.7048   65.2419 C   0  0  0  0  0  0  0  0  0  0  0  0
  -50.9177   60.0782   64.7588 C   0  0  0  0  0  0  0  0  0  0  0  0
  -51.3335   60.0361   63.5098 C   0  0  0  0  0  0  0  0  0  0  0  0
  -50.5637   59.5698   62.3170 C   0  0  0  0  0  0  0  0  0  0  0  0
  -50.8858   58.1038   62.0226 C   0  0  0  0  0  0  0  0  0  0  0  0
  -50.6650   57.6642   60.5826 C   0  0  0  0  0  0  0  0  0  0  0  0
  -49.4743   56.7378   60.3673 C   0  0  0  0  0  0  0  0  0  0  0  0
  -48.7858   56.9336   59.0205 C   0  0  0  0  0  0  0  0  0  0  0  0
  -47.7815   55.8435   58.6819 C   0  0  0  0  0  0  0  0  0  0  0  0
  -46.9223   56.1077   57.4546 C   0  0  0  0  0  0  0  0  0  0  0  0
  -47.4064   57.2733   56.6480 C   0  0  0  0  0  0  0  0  0  0  0  0
  -42.2234   58.7857   63.8537 O   0  0  0  0  0  0  0  0  0  0  0  0
  -41.8580   57.4689   64.3222 C   0  0  0  0  0  0  0  0  0  0  0  0
  -40.3765   57.2065   64.1534 C   0  0  0  0  0  0  0  0  0  0  0  0
  -40.0550   56.9292   62.7836 O   0  0  0  0  0  0  0  0  0  0  0  0
  -40.2558   57.7074   62.2405 H   0  0  0  0  0  0  0  0  0  0  0  0
  -39.5243   58.3517   64.6478 C   0  0  0  0  0  0  0  0  0  0  0  0
  -38.1716   57.9276   64.9435 O   0  0  0  0  0  0  0  0  0  0  0  0
  -36.7466   58.3730   64.3543 P   0  0  0  0  0  0  0  0  0  0  0  0
  -36.8118   58.2859   62.8304 O   0  0  0  0  0  0  0  0  0  0  0  0
  -35.7176   57.4257   64.8362 O   0  0  0  0  0  0  0  0  0  0  0  0
  -35.9592   56.5241   64.5723 H   0  0  0  0  0  0  0  0  0  0  0  0
  -36.3746   59.9170   64.7815 O   0  0  0  0  0  0  0  0  0  0  0  0
  -35.0386   60.4371   65.0214 C   0  0  0  0  0  0  0  0  0  0  0  0
  -34.8416   61.7329   64.2743 C   0  0  0  0  0  0  0  0  0  0  0  0
  -35.0384   63.0099   65.0701 N   0  0  0  0  0  0  0  0  0  0  0  0
  -34.9242   62.7368   66.5355 C   0  0  0  0  0  0  0  0  0  0  0  0
  -36.4016   63.5472   64.7812 C   0  0  0  0  0  0  0  0  0  0  0  0
  -34.0084   64.0337   64.6859 C   0  0  0  0  0  0  0  0  0  0  0  0
 34 33  1  0  0  0
 34 35  1  0  0  0
 34 36  1  0  0  0
 34 37  1  0  0  0
 22 23  1  0  0  0
 22 25  1  0  0  0
 22 21  1  0  0  0
 27 26  1  0  0  0
 27 28  2  0  0  0
 27 31  1  0  0  0
 27 29  1  0  0  0
 25 26  1  0  0  0
 32 33  1  0  0  0
 32 31  1  0  0  0
 20 21  1  0  0  0
 20  2  1  0  0  0
  1  2  2  0  0  0
  2  3  1  0  0  0
  3  4  1  0  0  0
  4  5  1  0  0  0
  5  6  1  0  0  0
  6  7  1  0  0  0
  7  8  1  0  0  0
  8  9  1  0  0  0
  9 10  1  0  0  0
 10 11  2  0  0  0
 11 12  1  0  0  0
 12 13  1  0  0  0
 13 14  1  0  0  0
 14 15  1  0  0  0
 15 16  1  0  0  0
 16 17  1  0  0  0
 17 18  1  0  0  0
 18 19  1  0  0  0
 23 24  1  0  0  0
 29 30  1  0  0  0
M  CHG 1  28  -1
M  END
> <minimizedAffinity>
-7.76096

> <CNNscore>
0.5980762243

> <CNNaffinity>
6.5121078491

> <CNN_VS>
3.8947367668

> <CNNaffinity_variance>
0.4183823466

$$$$



 37 36  0  0  0  0  0  0  0  0999 V2000
  -42.3842   60.2810   64.3255 O   0  0  0  0  0  0  0  0  0  0  0  0
  -43.1328   59.3928   64.6502 C   0  0  0  0  0  0  0  0  0  0  0  0
  -44.4655   59.5799   65.3081 C   0  0  0  0  0  0  0  0  0  0  0  0
  -44.5970   58.8201   66.6227 C   0  0  0  0  0  0  0  0  0  0  0  0
  -45.9771   58.8956   67.2529 C   0  0  0  0  0  0  0  0  0  0  0  0
  -46.6169   57.5358   67.4713 C   0  0  0  0  0  0  0  0  0  0  0  0
  -47.2607   56.9757   66.2146 C   0  0  0  0  0  0  0  0  0  0  0  0
  -48.4154   57.8270   65.7353 C   0  0  0  0  0  0  0  0  0  0  0  0
  -48.2311   58.4291   64.3571 C   0  0  0  0  0  0  0  0  0  0  0  0
  -48.4759   59.8882   64.2987 C   0  0  0  0  0  0  0  0  0  0  0  0
  -49.6172   60.4717   63.9958 C   0  0  0  0  0  0  0  0  0  0  0  0
  -50.9181   59.8049   63.6865 C   0  0  0  0  0  0  0  0  0  0  0  0
  -50.9870   59.4484   62.2007 C   0  0  0  0  0  0  0  0  0  0  0  0
  -51.0518   57.9603   61.8895 C   0  0  0  0  0  0  0  0  0  0  0  0
  -49.8296   57.3979   61.1739 C   0  0  0  0  0  0  0  0  0  0  0  0
  -49.4112   58.2104   59.9529 C   0  0  0  0  0  0  0  0  0  0  0  0
  -49.1779   57.3691   58.7081 C   0  0  0  0  0  0  0  0  0  0  0  0
  -48.0761   56.3264   58.8235 C   0  0  0  0  0  0  0  0  0  0  0  0
  -47.2915   56.1696   57.5573 C   0  0  0  0  0  0  0  0  0  0  0  0
  -42.8859   58.0938   64.4572 O   0  0  0  0  0  0  0  0  0  0  0  0
  -41.5199   57.6413   64.5837 C   0  0  0  0  0  0  0  0  0  0  0  0
  -41.3726   56.1887   64.1828 C   0  0  0  0  0  0  0  0  0  0  0  0
  -42.4034   55.3844   64.7718 O   0  0  0  0  0  0  0  0  0  0  0  0
  -43.2678   55.6712   64.4379 H   0  0  0  0  0  0  0  0  0  0  0  0
  -41.3799   55.9968   62.6843 C   0  0  0  0  0  0  0  0  0  0  0  0
  -41.2177   57.2519   61.9801 O   0  0  0  0  0  0  0  0  0  0  0  0
  -40.2197   57.7135   60.8110 P   0  0  0  0  0  0  0  0  0  0  0  0
  -40.3766   59.2207   60.6168 O   0  0  0  0  0  0  0  0  0  0  0  0
  -40.6124   57.0340   59.5571 O   0  0  0  0  0  0  0  0  0  0  0  0
  -41.5380   57.2408   59.3535 H   0  0  0  0  0  0  0  0  0  0  0  0
  -38.6534   57.3885   61.1935 O   0  0  0  0  0  0  0  0  0  0  0  0
  -37.7039   58.3265   61.7691 C   0  0  0  0  0  0  0  0  0  0  0  0
  -37.6252   58.1377   63.2639 C   0  0  0  0  0  0  0  0  0  0  0  0
  -36.2540   58.2935   63.8947 N   0  0  0  0  0  0  0  0  0  0  0  0
  -36.1940   59.5410   64.7165 C   0  0  0  0  0  0  0  0  0  0  0  0
  -35.2348   58.3795   62.8065 C   0  0  0  0  0  0  0  0  0  0  0  0
  -35.9430   57.1172   64.7757 C   0  0  0  0  0  0  0  0  0  0  0  0
 34 33  1  0  0  0
 34 35  1  0  0  0
 34 36  1  0  0  0
 34 37  1  0  0  0
 22 23  1  0  0  0
 22 25  1  0  0  0
 22 21  1  0  0  0
 27 26  1  0  0  0
 27 28  2  0  0  0
 27 31  1  0  0  0
 27 29  1  0  0  0
 25 26  1  0  0  0
 32 33  1  0  0  0
 32 31  1  0  0  0
 20 21  1  0  0  0
 20  2  1  0  0  0
  1  2  2  0  0  0
  2  3  1  0  0  0
  3  4  1  0  0  0
  4  5  1  0  0  0
  5  6  1  0  0  0
  6  7  1  0  0  0
  7  8  1  0  0  0
  8  9  1  0  0  0
  9 10  1  0  0  0
 10 11  2  0  0  0
 11 12  1  0  0  0
 12 13  1  0  0  0
 13 14  1  0  0  0
 14 15  1  0  0  0
 15 16  1  0  0  0
 16 17  1  0  0  0
 17 18  1  0  0  0
 18 19  1  0  0  0
 23 24  1  0  0  0
 29 30  1  0  0  0
M  CHG 1  28  -1
M  END
> <minimizedAffinity>
-7.78588

> <CNNscore>
0.5839788318

> <CNNaffinity>
6.9450364113

> <CNN_VS>
4.0557541847

> <CNNaffinity_variance>
0.1872558892

$$$$
