


 17 16  0  0  0  0  0  0  0  0999 V2000
  -49.8880   58.3675   61.1387 C   0  0  0  0  0  0  0  0  0  0  0  0
  -49.9362   59.8564   60.9445 C   0  0  0  0  0  0  0  0  0  0  0  0
  -49.5519   57.8731   62.3384 C   0  0  0  0  0  0  0  0  0  0  0  0
  -50.2195   57.4270   59.9992 C   0  0  0  0  0  0  0  0  0  0  0  0
  -49.0740   56.4502   59.7546 C   0  0  0  0  0  0  0  0  0  0  0  0
  -46.4261   57.5148   60.0085 C   0  0  0  0  0  0  0  0  0  0  0  0
  -47.0444   57.3514   58.6537 C   0  0  0  0  0  0  0  0  0  0  0  0
  -46.2712   57.7503   57.4329 C   0  0  0  0  0  0  0  0  0  0  0  0
  -48.2846   56.8552   58.5312 C   0  0  0  0  0  0  0  0  0  0  0  0
  -49.2256   58.8066   63.4814 C   0  0  0  0  0  0  0  0  0  0  0  0
  -49.8186   58.2745   64.7804 C   0  0  0  0  0  0  0  0  0  0  0  0
  -48.7483   58.2016   65.8478 C   0  0  0  0  0  0  0  0  0  0  0  0
  -47.9302   59.4153   66.1629 C   0  0  0  0  0  0  0  0  0  0  0  0
  -48.5352   57.0608   66.5202 C   0  0  0  0  0  0  0  0  0  0  0  0
  -46.3172   56.2935   67.0887 O   0  0  0  0  0  0  0  0  0  0  0  0
  -47.4740   56.9702   67.5930 C   0  0  0  0  0  0  0  0  0  0  0  0
  -45.6439   56.2414   67.7850 H   0  0  0  0  0  0  0  0  0  0  0  0
  6  7  1  0  0  0
 15 16  1  0  0  0
  7  8  1  0  0  0
  7  9  2  0  0  0
  9  5  1  0  0  0
  5  4  1  0  0  0
  4  1  1  0  0  0
  1  2  1  0  0  0
  1  3  2  0  0  0
  3 10  1  0  0  0
 10 11  1  0  0  0
 11 12  1  0  0  0
 12 13  1  0  0  0
 12 14  2  0  0  0
 14 16  1  0  0  0
 15 17  1  0  0  0
M  END
> <minimizedAffinity>
-7.64103

> <CNNscore>
0.8198232055

> <CNNaffinity>
6.0699291229

> <CNN_VS>
4.9762687683

> <CNNaffinity_variance>
0.1646241844

$$$$



 17 16  0  0  0  0  0  0  0  0999 V2000
  -49.0625   59.0567   61.4541 C   0  0  0  0  0  0  0  0  0  0  0  0
  -49.4875   57.9091   62.3256 C   0  0  0  0  0  0  0  0  0  0  0  0
  -49.2366   60.3117   61.8913 C   0  0  0  0  0  0  0  0  0  0  0  0
  -48.4380   58.8084   60.0973 C   0  0  0  0  0  0  0  0  0  0  0  0
  -47.2919   57.8079   60.2053 C   0  0  0  0  0  0  0  0  0  0  0  0
  -46.1809   57.6652   57.5681 C   0  0  0  0  0  0  0  0  0  0  0  0
  -47.0273   56.5443   58.0894 C   0  0  0  0  0  0  0  0  0  0  0  0
  -47.2915   55.3499   57.2229 C   0  0  0  0  0  0  0  0  0  0  0  0
  -47.5507   56.6086   59.3227 C   0  0  0  0  0  0  0  0  0  0  0  0
  -49.8541   60.5659   63.2472 C   0  0  0  0  0  0  0  0  0  0  0  0
  -48.7823   60.9990   64.2401 C   0  0  0  0  0  0  0  0  0  0  0  0
  -48.5623   59.9142   65.2722 C   0  0  0  0  0  0  0  0  0  0  0  0
  -49.7172   59.4185   66.0858 C   0  0  0  0  0  0  0  0  0  0  0  0
  -47.3427   59.3871   65.4553 C   0  0  0  0  0  0  0  0  0  0  0  0
  -46.4875   58.8477   67.6482 O   0  0  0  0  0  0  0  0  0  0  0  0
  -47.1045   58.2997   66.4780 C   0  0  0  0  0  0  0  0  0  0  0  0
  -46.3397   58.1415   68.2966 H   0  0  0  0  0  0  0  0  0  0  0  0
  6  7  1  0  0  0
 15 16  1  0  0  0
  7  8  1  0  0  0
  7  9  2  0  0  0
  9  5  1  0  0  0
  5  4  1  0  0  0
  4  1  1  0  0  0
  1  2  1  0  0  0
  1  3  2  0  0  0
  3 10  1  0  0  0
 10 11  1  0  0  0
 11 12  1  0  0  0
 12 13  1  0  0  0
 12 14  2  0  0  0
 14 16  1  0  0  0
 15 17  1  0  0  0
M  END
> <minimizedAffinity>
-6.88083

> <CNNscore>
0.7655938864

> <CNNaffinity>
5.8298001289

> <CNN_VS>
4.4632592201

> <CNNaffinity_variance>
0.1385317743

$$$$



 17 16  0  0  0  0  0  0  0  0999 V2000
  -48.6345   60.0038   63.9438 C   0  0  0  0  0  0  0  0  0  0  0  0
  -49.8808   60.8425   63.9393 C   0  0  0  0  0  0  0  0  0  0  0  0
  -48.5167   58.9993   63.0641 C   0  0  0  0  0  0  0  0  0  0  0  0
  -47.5152   60.2857   64.9237 C   0  0  0  0  0  0  0  0  0  0  0  0
  -47.9129   59.8628   66.3341 C   0  0  0  0  0  0  0  0  0  0  0  0
  -49.8011   57.7081   66.3725 C   0  0  0  0  0  0  0  0  0  0  0  0
  -48.3487   57.4401   66.6245 C   0  0  0  0  0  0  0  0  0  0  0  0
  -47.8901   56.0396   66.8993 C   0  0  0  0  0  0  0  0  0  0  0  0
  -47.4623   58.4467   66.6093 C   0  0  0  0  0  0  0  0  0  0  0  0
  -49.6280   58.7165   62.0795 C   0  0  0  0  0  0  0  0  0  0  0  0
  -49.2835   59.3023   60.7156 C   0  0  0  0  0  0  0  0  0  0  0  0
  -48.1522   58.5193   60.0852 C   0  0  0  0  0  0  0  0  0  0  0  0
  -46.9205   59.2350   59.6245 C   0  0  0  0  0  0  0  0  0  0  0  0
  -48.2412   57.1883   59.9464 C   0  0  0  0  0  0  0  0  0  0  0  0
  -47.4917   55.0097   59.2231 O   0  0  0  0  0  0  0  0  0  0  0  0
  -47.1196   56.3887   59.3235 C   0  0  0  0  0  0  0  0  0  0  0  0
  -46.7652   54.5071   58.8225 H   0  0  0  0  0  0  0  0  0  0  0  0
  6  7  1  0  0  0
 15 16  1  0  0  0
  7  8  1  0  0  0
  7  9  2  0  0  0
  9  5  1  0  0  0
  5  4  1  0  0  0
  4  1  1  0  0  0
  1  2  1  0  0  0
  1  3  2  0  0  0
  3 10  1  0  0  0
 10 11  1  0  0  0
 11 12  1  0  0  0
 12 13  1  0  0  0
 12 14  2  0  0  0
 14 16  1  0  0  0
 15 17  1  0  0  0
M  END
> <minimizedAffinity>
-6.12630

> <CNNscore>
0.7157023549

> <CNNaffinity>
6.1134910583

> <CNN_VS>
4.3754401207

> <CNNaffinity_variance>
0.2364430130

$$$$



 17 16  0  0  0  0  0  0  0  0999 V2000
  -48.4868   59.3591   61.0511 C   0  0  0  0  0  0  0  0  0  0  0  0
  -49.8520   59.9417   60.8195 C   0  0  0  0  0  0  0  0  0  0  0  0
  -48.3000   58.5119   62.0729 C   0  0  0  0  0  0  0  0  0  0  0  0
  -47.3291   59.7145   60.1422 C   0  0  0  0  0  0  0  0  0  0  0  0
  -46.5252   58.4701   59.7799 C   0  0  0  0  0  0  0  0  0  0  0  0
  -47.9760   56.0804   59.1520 C   0  0  0  0  0  0  0  0  0  0  0  0
  -47.4594   56.9575   58.0527 C   0  0  0  0  0  0  0  0  0  0  0  0
  -47.7035   56.5764   56.6236 C   0  0  0  0  0  0  0  0  0  0  0  0
  -46.7781   58.0759   58.3429 C   0  0  0  0  0  0  0  0  0  0  0  0
  -49.4529   58.1487   62.9801 C   0  0  0  0  0  0  0  0  0  0  0  0
  -49.3019   58.8459   64.3267 C   0  0  0  0  0  0  0  0  0  0  0  0
  -48.3520   58.0670   65.2107 C   0  0  0  0  0  0  0  0  0  0  0  0
  -46.8740   58.2374   65.0435 C   0  0  0  0  0  0  0  0  0  0  0  0
  -48.8252   57.2339   66.1492 C   0  0  0  0  0  0  0  0  0  0  0  0
  -47.5650   55.1947   66.4407 O   0  0  0  0  0  0  0  0  0  0  0  0
  -47.8921   56.4512   67.0446 C   0  0  0  0  0  0  0  0  0  0  0  0
  -46.9665   54.7019   67.0236 H   0  0  0  0  0  0  0  0  0  0  0  0
  6  7  1  0  0  0
 15 16  1  0  0  0
  7  8  1  0  0  0
  7  9  2  0  0  0
  9  5  1  0  0  0
  5  4  1  0  0  0
  4  1  1  0  0  0
  1  2  1  0  0  0
  1  3  2  0  0  0
  3 10  1  0  0  0
 10 11  1  0  0  0
 11 12  1  0  0  0
 12 13  1  0  0  0
 12 14  2  0  0  0
 14 16  1  0  0  0
 15 17  1  0  0  0
M  END
> <minimizedAffinity>
-7.07938

> <CNNscore>
0.6747117639

> <CNNaffinity>
6.0060453415

> <CNN_VS>
4.0523495674

> <CNNaffinity_variance>
0.1692371368

$$$$



 17 16  0  0  0  0  0  0  0  0999 V2000
  -49.4992   58.7963   63.2401 C   0  0  0  0  0  0  0  0  0  0  0  0
  -49.7690   60.2263   62.8670 C   0  0  0  0  0  0  0  0  0  0  0  0
  -49.0592   57.9457   62.3023 C   0  0  0  0  0  0  0  0  0  0  0  0
  -49.7135   58.3129   64.6589 C   0  0  0  0  0  0  0  0  0  0  0  0
  -49.3631   59.4078   65.6612 C   0  0  0  0  0  0  0  0  0  0  0  0
  -46.6660   60.1885   65.0910 C   0  0  0  0  0  0  0  0  0  0  0  0
  -46.9653   59.3342   66.2847 C   0  0  0  0  0  0  0  0  0  0  0  0
  -45.8460   58.8883   67.1767 C   0  0  0  0  0  0  0  0  0  0  0  0
  -48.2265   58.9650   66.5536 C   0  0  0  0  0  0  0  0  0  0  0  0
  -48.8378   58.4236   60.8857 C   0  0  0  0  0  0  0  0  0  0  0  0
  -47.3496   58.4249   60.5579 C   0  0  0  0  0  0  0  0  0  0  0  0
  -47.0995   57.6580   59.2775 C   0  0  0  0  0  0  0  0  0  0  0  0
  -46.5514   58.3707   58.0803 C   0  0  0  0  0  0  0  0  0  0  0  0
  -47.3554   56.3431   59.2114 C   0  0  0  0  0  0  0  0  0  0  0  0
  -48.2408   54.7384   57.6390 O   0  0  0  0  0  0  0  0  0  0  0  0
  -47.1076   55.5594   57.9427 C   0  0  0  0  0  0  0  0  0  0  0  0
  -48.0704   54.2409   56.8239 H   0  0  0  0  0  0  0  0  0  0  0  0
  6  7  1  0  0  0
 15 16  1  0  0  0
  7  8  1  0  0  0
  7  9  2  0  0  0
  9  5  1  0  0  0
  5  4  1  0  0  0
  4  1  1  0  0  0
  1  2  1  0  0  0
  1  3  2  0  0  0
  3 10  1  0  0  0
 10 11  1  0  0  0
 11 12  1  0  0  0
 12 13  1  0  0  0
 12 14  2  0  0  0
 14 16  1  0  0  0
 15 17  1  0  0  0
M  END
> <minimizedAffinity>
-6.85690

> <CNNscore>
0.6558179259

> <CNNaffinity>
6.0089535713

> <CNN_VS>
3.9407794476

> <CNNaffinity_variance>
0.1362406164

$$$$



 17 16  0  0  0  0  0  0  0  0999 V2000
  -42.5013   57.8369   62.6230 C   0  0  0  0  0  0  0  0  0  0  0  0
  -41.9415   59.2228   62.4721 C   0  0  0  0  0  0  0  0  0  0  0  0
  -41.8332   56.7991   62.1002 C   0  0  0  0  0  0  0  0  0  0  0  0
  -43.8027   57.6038   63.3610 C   0  0  0  0  0  0  0  0  0  0  0  0
  -43.5462   57.3622   64.8450 C   0  0  0  0  0  0  0  0  0  0  0  0
  -45.2962   58.7510   66.6389 C   0  0  0  0  0  0  0  0  0  0  0  0
  -45.5409   57.3087   66.3153 C   0  0  0  0  0  0  0  0  0  0  0  0
  -46.7041   56.5964   66.9373 C   0  0  0  0  0  0  0  0  0  0  0  0
  -44.7225   56.6549   65.4776 C   0  0  0  0  0  0  0  0  0  0  0  0
  -40.5307   57.0246   61.3674 C   0  0  0  0  0  0  0  0  0  0  0  0
  -39.3562   56.5986   62.2399 C   0  0  0  0  0  0  0  0  0  0  0  0
  -38.0936   57.3011   61.7897 C   0  0  0  0  0  0  0  0  0  0  0  0
  -38.1488   58.2675   60.6475 C   0  0  0  0  0  0  0  0  0  0  0  0
  -36.9286   57.0717   62.4134 C   0  0  0  0  0  0  0  0  0  0  0  0
  -35.4648   58.9636   62.7441 O   0  0  0  0  0  0  0  0  0  0  0  0
  -35.6581   57.7675   61.9810 C   0  0  0  0  0  0  0  0  0  0  0  0
  -34.6475   59.4010   62.4583 H   0  0  0  0  0  0  0  0  0  0  0  0
  6  7  1  0  0  0
 15 16  1  0  0  0
  7  8  1  0  0  0
  7  9  2  0  0  0
  9  5  1  0  0  0
  5  4  1  0  0  0
  4  1  1  0  0  0
  1  2  1  0  0  0
  1  3  2  0  0  0
  3 10  1  0  0  0
 10 11  1  0  0  0
 11 12  1  0  0  0
 12 13  1  0  0  0
 12 14  2  0  0  0
 14 16  1  0  0  0
 15 17  1  0  0  0
M  END
> <minimizedAffinity>
-6.53607

> <CNNscore>
0.6504247785

> <CNNaffinity>
5.7666501999

> <CNN_VS>
3.7507722378

> <CNNaffinity_variance>
0.2295592278

$$$$



 17 16  0  0  0  0  0  0  0  0999 V2000
  -50.0011   58.4049   60.8885 C   0  0  0  0  0  0  0  0  0  0  0  0
  -49.9610   59.9023   60.7750 C   0  0  0  0  0  0  0  0  0  0  0  0
  -49.7879   57.8316   62.0812 C   0  0  0  0  0  0  0  0  0  0  0  0
  -50.2843   57.5439   59.6756 C   0  0  0  0  0  0  0  0  0  0  0  0
  -49.1803   56.5105   59.4772 C   0  0  0  0  0  0  0  0  0  0  0  0
  -46.5082   57.4420   59.9261 C   0  0  0  0  0  0  0  0  0  0  0  0
  -47.0422   57.3328   58.5306 C   0  0  0  0  0  0  0  0  0  0  0  0
  -46.1719   57.7160   57.3717 C   0  0  0  0  0  0  0  0  0  0  0  0
  -48.2933   56.8991   58.3168 C   0  0  0  0  0  0  0  0  0  0  0  0
  -49.5104   58.6858   63.2968 C   0  0  0  0  0  0  0  0  0  0  0  0
  -48.1919   58.2728   63.9396 C   0  0  0  0  0  0  0  0  0  0  0  0
  -48.4475   57.6553   65.2974 C   0  0  0  0  0  0  0  0  0  0  0  0
  -49.7246   57.9531   66.0199 C   0  0  0  0  0  0  0  0  0  0  0  0
  -47.5430   56.8352   65.8525 C   0  0  0  0  0  0  0  0  0  0  0  0
  -47.9734   54.7929   67.0671 O   0  0  0  0  0  0  0  0  0  0  0  0
  -47.7827   56.2053   67.2057 C   0  0  0  0  0  0  0  0  0  0  0  0
  -48.1262   54.4000   67.9407 H   0  0  0  0  0  0  0  0  0  0  0  0
  6  7  1  0  0  0
 15 16  1  0  0  0
  7  8  1  0  0  0
  7  9  2  0  0  0
  9  5  1  0  0  0
  5  4  1  0  0  0
  4  1  1  0  0  0
  1  2  1  0  0  0
  1  3  2  0  0  0
  3 10  1  0  0  0
 10 11  1  0  0  0
 11 12  1  0  0  0
 12 13  1  0  0  0
 12 14  2  0  0  0
 14 16  1  0  0  0
 15 17  1  0  0  0
M  END
> <minimizedAffinity>
-7.93817

> <CNNscore>
0.6480272412

> <CNNaffinity>
5.9590992928

> <CNN_VS>
3.8616585732

> <CNNaffinity_variance>
0.1125617474

$$$$



 17 16  0  0  0  0  0  0  0  0999 V2000
  -42.3774   56.5020   63.3505 C   0  0  0  0  0  0  0  0  0  0  0  0
  -41.7628   55.2177   63.8299 C   0  0  0  0  0  0  0  0  0  0  0  0
  -41.7695   57.1974   62.3791 C   0  0  0  0  0  0  0  0  0  0  0  0
  -43.6723   57.0108   63.9479 C   0  0  0  0  0  0  0  0  0  0  0  0
  -43.7234   56.7289   65.4459 C   0  0  0  0  0  0  0  0  0  0  0  0
  -44.9889   58.9422   66.7532 C   0  0  0  0  0  0  0  0  0  0  0  0
  -43.5008   58.7814   66.8175 C   0  0  0  0  0  0  0  0  0  0  0  0
  -42.6783   59.7860   67.5668 C   0  0  0  0  0  0  0  0  0  0  0  0
  -42.9047   57.7476   66.2049 C   0  0  0  0  0  0  0  0  0  0  0  0
  -40.4798   56.6917   61.7747 C   0  0  0  0  0  0  0  0  0  0  0  0
  -39.8233   57.7877   60.9442 C   0  0  0  0  0  0  0  0  0  0  0  0
  -38.5168   58.2093   61.5812 C   0  0  0  0  0  0  0  0  0  0  0  0
  -38.2736   59.6539   61.8900 C   0  0  0  0  0  0  0  0  0  0  0  0
  -37.5806   57.2966   61.8803 C   0  0  0  0  0  0  0  0  0  0  0  0
  -35.2541   57.8364   61.5229 O   0  0  0  0  0  0  0  0  0  0  0  0
  -36.2715   57.6980   62.5210 C   0  0  0  0  0  0  0  0  0  0  0  0
  -34.4197   58.0939   61.9453 H   0  0  0  0  0  0  0  0  0  0  0  0
  6  7  1  0  0  0
 15 16  1  0  0  0
  7  8  1  0  0  0
  7  9  2  0  0  0
  9  5  1  0  0  0
  5  4  1  0  0  0
  4  1  1  0  0  0
  1  2  1  0  0  0
  1  3  2  0  0  0
  3 10  1  0  0  0
 10 11  1  0  0  0
 11 12  1  0  0  0
 12 13  1  0  0  0
 12 14  2  0  0  0
 14 16  1  0  0  0
 15 17  1  0  0  0
M  END
> <minimizedAffinity>
-6.49940

> <CNNscore>
0.5214503407

> <CNNaffinity>
5.5337624550

> <CNN_VS>
2.8855822086

> <CNNaffinity_variance>
0.0391295552

$$$$



 17 16  0  0  0  0  0  0  0  0999 V2000
  -44.3142   57.6761   62.9533 C   0  0  0  0  0  0  0  0  0  0  0  0
  -44.1750   57.1772   64.3635 C   0  0  0  0  0  0  0  0  0  0  0  0
  -43.2263   57.7509   62.1738 C   0  0  0  0  0  0  0  0  0  0  0  0
  -45.6654   58.0870   62.4073 C   0  0  0  0  0  0  0  0  0  0  0  0
  -45.6978   57.9519   60.8885 C   0  0  0  0  0  0  0  0  0  0  0  0
  -46.3445   57.8699   58.0984 C   0  0  0  0  0  0  0  0  0  0  0  0
  -47.3625   57.4612   59.1188 C   0  0  0  0  0  0  0  0  0  0  0  0
  -48.7212   57.0122   58.6720 C   0  0  0  0  0  0  0  0  0  0  0  0
  -47.0640   57.5003   60.4259 C   0  0  0  0  0  0  0  0  0  0  0  0
  -41.8757   57.3368   62.7111 C   0  0  0  0  0  0  0  0  0  0  0  0
  -41.0895   56.5920   61.6391 C   0  0  0  0  0  0  0  0  0  0  0  0
  -39.7066   57.1908   61.4996 C   0  0  0  0  0  0  0  0  0  0  0  0
  -38.6002   56.7194   62.3913 C   0  0  0  0  0  0  0  0  0  0  0  0
  -39.4634   58.1326   60.5762 C   0  0  0  0  0  0  0  0  0  0  0  0
  -38.0843   60.0887   60.8968 O   0  0  0  0  0  0  0  0  0  0  0  0
  -38.0876   58.7389   60.4189 C   0  0  0  0  0  0  0  0  0  0  0  0
  -37.1974   60.4670   60.7910 H   0  0  0  0  0  0  0  0  0  0  0  0
  6  7  1  0  0  0
 15 16  1  0  0  0
  7  8  1  0  0  0
  7  9  2  0  0  0
  9  5  1  0  0  0
  5  4  1  0  0  0
  4  1  1  0  0  0
  1  2  1  0  0  0
  1  3  2  0  0  0
  3 10  1  0  0  0
 10 11  1  0  0  0
 11 12  1  0  0  0
 12 13  1  0  0  0
 12 14  2  0  0  0
 14 16  1  0  0  0
 15 17  1  0  0  0
M  END
> <minimizedAffinity>
-7.29068

> <CNNscore>
0.5177739859

> <CNNaffinity>
5.7356047630

> <CNN_VS>
2.9697468281

> <CNNaffinity_variance>
0.4047707021

$$$$
