


 37 36  0  0  0  0  0  0  0  0999 V2000
  -42.9660   57.3533   66.4665 O   0  0  0  0  0  0  0  0  0  0  0  0
  -43.5167   58.4213   66.5700 C   0  0  0  0  0  0  0  0  0  0  0  0
  -44.9767   58.6210   66.8391 C   0  0  0  0  0  0  0  0  0  0  0  0
  -45.8100   58.7376   65.5685 C   0  0  0  0  0  0  0  0  0  0  0  0
  -46.6598   59.9944   65.4914 C   0  0  0  0  0  0  0  0  0  0  0  0
  -48.0395   59.8296   66.1040 C   0  0  0  0  0  0  0  0  0  0  0  0
  -48.9425   58.9168   65.2924 C   0  0  0  0  0  0  0  0  0  0  0  0
  -50.4033   59.1040   65.6365 C   0  0  0  0  0  0  0  0  0  0  0  0
  -51.1497   60.0660   64.7347 C   0  0  0  0  0  0  0  0  0  0  0  0
  -50.5111   60.2749   63.4153 C   0  0  0  0  0  0  0  0  0  0  0  0
  -50.6138   59.4810   62.3694 C   0  0  0  0  0  0  0  0  0  0  0  0
  -51.4197   58.2274   62.2630 C   0  0  0  0  0  0  0  0  0  0  0  0
  -51.2058   57.5784   60.8946 C   0  0  0  0  0  0  0  0  0  0  0  0
  -49.9747   56.6916   60.7788 C   0  0  0  0  0  0  0  0  0  0  0  0
  -48.8187   57.2940   59.9895 C   0  0  0  0  0  0  0  0  0  0  0  0
  -48.7876   56.8600   58.5277 C   0  0  0  0  0  0  0  0  0  0  0  0
  -48.1616   55.4919   58.3083 C   0  0  0  0  0  0  0  0  0  0  0  0
  -47.2122   55.3922   57.1238 C   0  0  0  0  0  0  0  0  0  0  0  0
  -46.8403   56.7312   56.5647 C   0  0  0  0  0  0  0  0  0  0  0  0
  -42.8950   59.5999   66.4707 O   0  0  0  0  0  0  0  0  0  0  0  0
  -41.4504   59.6023   66.4729 C   0  0  0  0  0  0  0  0  0  0  0  0
  -40.8889   59.4738   65.0727 C   0  0  0  0  0  0  0  0  0  0  0  0
  -40.6521   60.7634   64.4919 O   0  0  0  0  0  0  0  0  0  0  0  0
  -39.9807   61.2334   65.0109 H   0  0  0  0  0  0  0  0  0  0  0  0
  -39.6154   58.6621   65.0306 C   0  0  0  0  0  0  0  0  0  0  0  0
  -38.5180   59.3483   65.6802 O   0  0  0  0  0  0  0  0  0  0  0  0
  -37.6663   60.6476   65.2772 P   0  0  0  0  0  0  0  0  0  0  0  0
  -36.1858   60.3300   65.4807 O   0  0  0  0  0  0  0  0  0  0  0  0
  -38.0382   61.7572   66.1821 O   0  0  0  0  0  0  0  0  0  0  0  0
  -37.8868   61.4890   67.1019 H   0  0  0  0  0  0  0  0  0  0  0  0
  -37.9083   61.0617   63.7040 O   0  0  0  0  0  0  0  0  0  0  0  0
  -37.1285   60.5948   62.5696 C   0  0  0  0  0  0  0  0  0  0  0  0
  -36.9175   59.1037   62.6602 C   0  0  0  0  0  0  0  0  0  0  0  0
  -37.3186   58.2881   61.4451 N   0  0  0  0  0  0  0  0  0  0  0  0
  -38.0046   59.1530   60.4368 C   0  0  0  0  0  0  0  0  0  0  0  0
  -38.2581   57.2122   61.8812 C   0  0  0  0  0  0  0  0  0  0  0  0
  -36.1100   57.6647   60.8070 C   0  0  0  0  0  0  0  0  0  0  0  0
 34 33  1  0  0  0
 34 35  1  0  0  0
 34 36  1  0  0  0
 34 37  1  0  0  0
 22 23  1  0  0  0
 22 25  1  0  0  0
 22 21  1  0  0  0
 27 26  1  0  0  0
 27 28  2  0  0  0
 27 31  1  0  0  0
 27 29  1  0  0  0
 25 26  1  0  0  0
 32 33  1  0  0  0
 32 31  1  0  0  0
 20 21  1  0  0  0
 20  2  1  0  0  0
  1  2  2  0  0  0
  2  3  1  0  0  0
  3  4  1  0  0  0
  4  5  1  0  0  0
  5  6  1  0  0  0
  6  7  1  0  0  0
  7  8  1  0  0  0
  8  9  1  0  0  0
  9 10  1  0  0  0
 10 11  2  0  0  0
 11 12  1  0  0  0
 12 13  1  0  0  0
 13 14  1  0  0  0
 14 15  1  0  0  0
 15 16  1  0  0  0
 16 17  1  0  0  0
 17 18  1  0  0  0
 18 19  1  0  0  0
 23 24  1  0  0  0
 29 30  1  0  0  0
M  CHG 1  28  -1
M  END
> <minimizedAffinity>
-7.79491

> <CNNscore>
0.7954169512

> <CNNaffinity>
6.7023720741

> <CNN_VS>
5.3311805725

> <CNNaffinity_variance>
0.1104386002

$$$$



 37 36  0  0  0  0  0  0  0  0999 V2000
  -39.5799   60.6288   62.2351 O   0  0  0  0  0  0  0  0  0  0  0  0
  -40.1462   60.0513   63.1298 C   0  0  0  0  0  0  0  0  0  0  0  0
  -41.4914   60.4134   63.6803 C   0  0  0  0  0  0  0  0  0  0  0  0
  -41.6431   60.0803   65.1598 C   0  0  0  0  0  0  0  0  0  0  0  0
  -42.6942   59.0251   65.4583 C   0  0  0  0  0  0  0  0  0  0  0  0
  -44.1053   59.5815   65.5317 C   0  0  0  0  0  0  0  0  0  0  0  0
  -45.1596   58.5012   65.7016 C   0  0  0  0  0  0  0  0  0  0  0  0
  -46.2100   58.8823   66.7209 C   0  0  0  0  0  0  0  0  0  0  0  0
  -47.6247   58.9447   66.1818 C   0  0  0  0  0  0  0  0  0  0  0  0
  -47.8919   60.1214   65.3237 C   0  0  0  0  0  0  0  0  0  0  0  0
  -49.0300   60.4006   64.7225 C   0  0  0  0  0  0  0  0  0  0  0  0
  -50.3060   59.6271   64.8006 C   0  0  0  0  0  0  0  0  0  0  0  0
  -51.3780   60.2908   63.9346 C   0  0  0  0  0  0  0  0  0  0  0  0
  -51.7151   59.5622   62.6419 C   0  0  0  0  0  0  0  0  0  0  0  0
  -50.8471   58.3460   62.3427 C   0  0  0  0  0  0  0  0  0  0  0  0
  -51.3353   57.5272   61.1521 C   0  0  0  0  0  0  0  0  0  0  0  0
  -50.2191   56.8355   60.3857 C   0  0  0  0  0  0  0  0  0  0  0  0
  -49.5991   57.6507   59.2606 C   0  0  0  0  0  0  0  0  0  0  0  0
  -48.1810   57.2612   58.9761 C   0  0  0  0  0  0  0  0  0  0  0  0
  -39.6558   58.9811   63.7621 O   0  0  0  0  0  0  0  0  0  0  0  0
  -38.8471   58.0590   62.9989 C   0  0  0  0  0  0  0  0  0  0  0  0
  -37.3682   58.3046   63.2108 C   0  0  0  0  0  0  0  0  0  0  0  0
  -36.8532   59.2218   62.2361 O   0  0  0  0  0  0  0  0  0  0  0  0
  -37.2883   60.0824   62.3404 H   0  0  0  0  0  0  0  0  0  0  0  0
  -37.0582   58.8180   64.5974 C   0  0  0  0  0  0  0  0  0  0  0  0
  -36.6594   60.2102   64.5792 O   0  0  0  0  0  0  0  0  0  0  0  0
  -37.0876   61.4684   65.4788 P   0  0  0  0  0  0  0  0  0  0  0  0
  -38.2414   61.0381   66.3831 O   0  0  0  0  0  0  0  0  0  0  0  0
  -37.5659   62.5475   64.5872 O   0  0  0  0  0  0  0  0  0  0  0  0
  -38.2986   62.2173   64.0441 H   0  0  0  0  0  0  0  0  0  0  0  0
  -35.8423   61.9875   66.4194 O   0  0  0  0  0  0  0  0  0  0  0  0
  -34.8989   63.0402   66.0804 C   0  0  0  0  0  0  0  0  0  0  0  0
  -34.4423   62.8905   64.6503 C   0  0  0  0  0  0  0  0  0  0  0  0
  -34.4355   64.1516   63.8062 N   0  0  0  0  0  0  0  0  0  0  0  0
  -33.0335   64.5601   63.4860 C   0  0  0  0  0  0  0  0  0  0  0  0
  -35.0958   65.2463   64.5783 C   0  0  0  0  0  0  0  0  0  0  0  0
  -35.1813   63.9292   62.5214 C   0  0  0  0  0  0  0  0  0  0  0  0
 34 33  1  0  0  0
 34 35  1  0  0  0
 34 36  1  0  0  0
 34 37  1  0  0  0
 22 23  1  0  0  0
 22 25  1  0  0  0
 22 21  1  0  0  0
 27 26  1  0  0  0
 27 28  2  0  0  0
 27 31  1  0  0  0
 27 29  1  0  0  0
 25 26  1  0  0  0
 32 33  1  0  0  0
 32 31  1  0  0  0
 20 21  1  0  0  0
 20  2  1  0  0  0
  1  2  2  0  0  0
  2  3  1  0  0  0
  3  4  1  0  0  0
  4  5  1  0  0  0
  5  6  1  0  0  0
  6  7  1  0  0  0
  7  8  1  0  0  0
  8  9  1  0  0  0
  9 10  1  0  0  0
 10 11  2  0  0  0
 11 12  1  0  0  0
 12 13  1  0  0  0
 13 14  1  0  0  0
 14 15  1  0  0  0
 15 16  1  0  0  0
 16 17  1  0  0  0
 17 18  1  0  0  0
 18 19  1  0  0  0
 23 24  1  0  0  0
 29 30  1  0  0  0
M  CHG 1  28  -1
M  END
> <minimizedAffinity>
-7.90139

> <CNNscore>
0.7938131690

> <CNNaffinity>
6.3792991638

> <CNN_VS>
5.0639715195

> <CNNaffinity_variance>
0.2110644579

$$$$



 37 36  0  0  0  0  0  0  0  0999 V2000
  -42.8035   56.9406   66.2140 O   0  0  0  0  0  0  0  0  0  0  0  0
  -42.7202   58.0389   65.7226 C   0  0  0  0  0  0  0  0  0  0  0  0
  -43.8740   58.9508   65.4381 C   0  0  0  0  0  0  0  0  0  0  0  0
  -44.8264   59.0987   66.6187 C   0  0  0  0  0  0  0  0  0  0  0  0
  -46.2957   58.9652   66.2570 C   0  0  0  0  0  0  0  0  0  0  0  0
  -46.7942   57.5309   66.2735 C   0  0  0  0  0  0  0  0  0  0  0  0
  -48.1580   57.3706   65.6238 C   0  0  0  0  0  0  0  0  0  0  0  0
  -48.9189   58.6763   65.5615 C   0  0  0  0  0  0  0  0  0  0  0  0
  -50.3938   58.5369   65.2436 C   0  0  0  0  0  0  0  0  0  0  0  0
  -51.0323   59.7903   64.7812 C   0  0  0  0  0  0  0  0  0  0  0  0
  -51.4659   60.0360   63.5621 C   0  0  0  0  0  0  0  0  0  0  0  0
  -51.4507   59.1050   62.3935 C   0  0  0  0  0  0  0  0  0  0  0  0
  -50.1714   59.3033   61.5788 C   0  0  0  0  0  0  0  0  0  0  0  0
  -49.3852   58.0351   61.2806 C   0  0  0  0  0  0  0  0  0  0  0  0
  -49.9888   57.1411   60.2042 C   0  0  0  0  0  0  0  0  0  0  0  0
  -49.1421   57.0547   58.9386 C   0  0  0  0  0  0  0  0  0  0  0  0
  -47.6776   57.4004   59.1569 C   0  0  0  0  0  0  0  0  0  0  0  0
  -46.8012   57.3369   57.9150 C   0  0  0  0  0  0  0  0  0  0  0  0
  -47.5131   56.7558   56.7322 C   0  0  0  0  0  0  0  0  0  0  0  0
  -41.5695   58.6171   65.3661 O   0  0  0  0  0  0  0  0  0  0  0  0
  -41.6007   60.0163   65.0080 C   0  0  0  0  0  0  0  0  0  0  0  0
  -40.4144   60.4004   64.1493 C   0  0  0  0  0  0  0  0  0  0  0  0
  -39.3461   60.9234   64.9504 O   0  0  0  0  0  0  0  0  0  0  0  0
  -39.0300   60.2354   65.5568 H   0  0  0  0  0  0  0  0  0  0  0  0
  -39.9018   59.2473   63.3187 C   0  0  0  0  0  0  0  0  0  0  0  0
  -40.0392   59.5031   61.8999 O   0  0  0  0  0  0  0  0  0  0  0  0
  -38.9624   59.6398   60.7176 P   0  0  0  0  0  0  0  0  0  0  0  0
  -37.7197   60.3273   61.2809 O   0  0  0  0  0  0  0  0  0  0  0  0
  -39.5324   60.4956   59.6542 O   0  0  0  0  0  0  0  0  0  0  0  0
  -39.7787   61.3559   60.0287 H   0  0  0  0  0  0  0  0  0  0  0  0
  -38.5306   58.1681   60.1236 O   0  0  0  0  0  0  0  0  0  0  0  0
  -37.4718   57.9145   59.1605 C   0  0  0  0  0  0  0  0  0  0  0  0
  -36.9290   56.5181   59.3380 C   0  0  0  0  0  0  0  0  0  0  0  0
  -35.4519   56.4025   59.6661 N   0  0  0  0  0  0  0  0  0  0  0  0
  -35.1223   57.2011   60.8862 C   0  0  0  0  0  0  0  0  0  0  0  0
  -34.6639   56.9307   58.5126 C   0  0  0  0  0  0  0  0  0  0  0  0
  -35.0773   54.9683   59.9095 C   0  0  0  0  0  0  0  0  0  0  0  0
 34 33  1  0  0  0
 34 35  1  0  0  0
 34 36  1  0  0  0
 34 37  1  0  0  0
 22 23  1  0  0  0
 22 25  1  0  0  0
 22 21  1  0  0  0
 27 26  1  0  0  0
 27 28  2  0  0  0
 27 31  1  0  0  0
 27 29  1  0  0  0
 25 26  1  0  0  0
 32 33  1  0  0  0
 32 31  1  0  0  0
 20 21  1  0  0  0
 20  2  1  0  0  0
  1  2  2  0  0  0
  2  3  1  0  0  0
  3  4  1  0  0  0
  4  5  1  0  0  0
  5  6  1  0  0  0
  6  7  1  0  0  0
  7  8  1  0  0  0
  8  9  1  0  0  0
  9 10  1  0  0  0
 10 11  2  0  0  0
 11 12  1  0  0  0
 12 13  1  0  0  0
 13 14  1  0  0  0
 14 15  1  0  0  0
 15 16  1  0  0  0
 16 17  1  0  0  0
 17 18  1  0  0  0
 18 19  1  0  0  0
 23 24  1  0  0  0
 29 30  1  0  0  0
M  CHG 1  28  -1
M  END
> <minimizedAffinity>
-8.44890

> <CNNscore>
0.7728323340

> <CNNaffinity>
6.8104233742

> <CNN_VS>
5.2633152008

> <CNNaffinity_variance>
0.4066640735

$$$$



 37 36  0  0  0  0  0  0  0  0999 V2000
  -40.1134   58.5503   65.4032 O   0  0  0  0  0  0  0  0  0  0  0  0
  -40.5006   59.6854   65.2756 C   0  0  0  0  0  0  0  0  0  0  0  0
  -41.8208   60.2094   65.7513 C   0  0  0  0  0  0  0  0  0  0  0  0
  -43.0007   59.6850   64.9417 C   0  0  0  0  0  0  0  0  0  0  0  0
  -44.1061   59.0641   65.7784 C   0  0  0  0  0  0  0  0  0  0  0  0
  -44.6349   57.7595   65.2088 C   0  0  0  0  0  0  0  0  0  0  0  0
  -45.9737   57.9186   64.5090 C   0  0  0  0  0  0  0  0  0  0  0  0
  -46.9183   58.8151   65.2781 C   0  0  0  0  0  0  0  0  0  0  0  0
  -48.2199   59.1250   64.5669 C   0  0  0  0  0  0  0  0  0  0  0  0
  -49.4008   58.4458   65.1469 C   0  0  0  0  0  0  0  0  0  0  0  0
  -50.6591   58.6723   64.8303 C   0  0  0  0  0  0  0  0  0  0  0  0
  -51.1737   59.6232   63.7990 C   0  0  0  0  0  0  0  0  0  0  0  0
  -51.2917   58.9195   62.4460 C   0  0  0  0  0  0  0  0  0  0  0  0
  -50.1648   59.2023   61.4635 C   0  0  0  0  0  0  0  0  0  0  0  0
  -49.3247   57.9899   61.0804 C   0  0  0  0  0  0  0  0  0  0  0  0
  -49.2967   57.7175   59.5800 C   0  0  0  0  0  0  0  0  0  0  0  0
  -48.0558   56.9715   59.1161 C   0  0  0  0  0  0  0  0  0  0  0  0
  -47.2760   57.6392   57.9933 C   0  0  0  0  0  0  0  0  0  0  0  0
  -47.0957   56.7479   56.8031 C   0  0  0  0  0  0  0  0  0  0  0  0
  -39.7941   60.6592   64.6941 O   0  0  0  0  0  0  0  0  0  0  0  0
  -38.4095   60.3924   64.3804 C   0  0  0  0  0  0  0  0  0  0  0  0
  -37.5229   61.5737   64.7132 C   0  0  0  0  0  0  0  0  0  0  0  0
  -37.5778   61.8811   66.1128 O   0  0  0  0  0  0  0  0  0  0  0  0
  -37.2325   61.1313   66.6223 H   0  0  0  0  0  0  0  0  0  0  0  0
  -36.0857   61.3543   64.3027 C   0  0  0  0  0  0  0  0  0  0  0  0
  -35.7290   62.1489   63.1457 O   0  0  0  0  0  0  0  0  0  0  0  0
  -35.3871   63.7071   62.9690 P   0  0  0  0  0  0  0  0  0  0  0  0
  -36.5286   64.5185   63.5794 O   0  0  0  0  0  0  0  0  0  0  0  0
  -35.3113   64.0146   61.5240 O   0  0  0  0  0  0  0  0  0  0  0  0
  -36.1477   63.7709   61.0973 H   0  0  0  0  0  0  0  0  0  0  0  0
  -33.9859   64.1061   63.7322 O   0  0  0  0  0  0  0  0  0  0  0  0
  -32.8944   64.8784   63.1621 C   0  0  0  0  0  0  0  0  0  0  0  0
  -32.1551   64.0569   62.1352 C   0  0  0  0  0  0  0  0  0  0  0  0
  -31.2010   63.0046   62.6691 N   0  0  0  0  0  0  0  0  0  0  0  0
  -31.8446   61.6553   62.6486 C   0  0  0  0  0  0  0  0  0  0  0  0
  -30.8468   63.3522   64.0777 C   0  0  0  0  0  0  0  0  0  0  0  0
  -29.9502   62.9579   61.8386 C   0  0  0  0  0  0  0  0  0  0  0  0
 34 33  1  0  0  0
 34 35  1  0  0  0
 34 36  1  0  0  0
 34 37  1  0  0  0
 22 23  1  0  0  0
 22 25  1  0  0  0
 22 21  1  0  0  0
 27 26  1  0  0  0
 27 28  2  0  0  0
 27 31  1  0  0  0
 27 29  1  0  0  0
 25 26  1  0  0  0
 32 33  1  0  0  0
 32 31  1  0  0  0
 20 21  1  0  0  0
 20  2  1  0  0  0
  1  2  2  0  0  0
  2  3  1  0  0  0
  3  4  1  0  0  0
  4  5  1  0  0  0
  5  6  1  0  0  0
  6  7  1  0  0  0
  7  8  1  0  0  0
  8  9  1  0  0  0
  9 10  1  0  0  0
 10 11  2  0  0  0
 11 12  1  0  0  0
 12 13  1  0  0  0
 13 14  1  0  0  0
 14 15  1  0  0  0
 15 16  1  0  0  0
 16 17  1  0  0  0
 17 18  1  0  0  0
 18 19  1  0  0  0
 23 24  1  0  0  0
 29 30  1  0  0  0
M  CHG 1  28  -1
M  END
> <minimizedAffinity>
-8.26062

> <CNNscore>
0.7704480886

> <CNNaffinity>
6.1817083359

> <CNN_VS>
4.7626852989

> <CNNaffinity_variance>
0.6007130742

$$$$



 37 36  0  0  0  0  0  0  0  0999 V2000
  -42.4917   59.8263   64.6631 O   0  0  0  0  0  0  0  0  0  0  0  0
  -42.2331   58.9691   65.4711 C   0  0  0  0  0  0  0  0  0  0  0  0
  -43.2304   58.0545   66.1136 C   0  0  0  0  0  0  0  0  0  0  0  0
  -44.4407   58.7889   66.6779 C   0  0  0  0  0  0  0  0  0  0  0  0
  -45.7783   58.2322   66.2214 C   0  0  0  0  0  0  0  0  0  0  0  0
  -45.8647   58.0218   64.7200 C   0  0  0  0  0  0  0  0  0  0  0  0
  -47.2896   58.0735   64.1959 C   0  0  0  0  0  0  0  0  0  0  0  0
  -48.3096   58.0874   65.3126 C   0  0  0  0  0  0  0  0  0  0  0  0
  -49.0875   59.3809   65.4457 C   0  0  0  0  0  0  0  0  0  0  0  0
  -50.5434   59.2352   65.2194 C   0  0  0  0  0  0  0  0  0  0  0  0
  -51.1439   59.1721   64.0488 C   0  0  0  0  0  0  0  0  0  0  0  0
  -50.4993   59.1912   62.7010 C   0  0  0  0  0  0  0  0  0  0  0  0
  -51.2567   58.2714   61.7419 C   0  0  0  0  0  0  0  0  0  0  0  0
  -50.3955   57.2817   60.9710 C   0  0  0  0  0  0  0  0  0  0  0  0
  -50.1563   57.6382   59.5088 C   0  0  0  0  0  0  0  0  0  0  0  0
  -48.6839   57.6242   59.1113 C   0  0  0  0  0  0  0  0  0  0  0  0
  -48.0005   56.2855   59.3405 C   0  0  0  0  0  0  0  0  0  0  0  0
  -47.7266   55.4706   58.0854 C   0  0  0  0  0  0  0  0  0  0  0  0
  -47.6895   56.3104   56.8456 C   0  0  0  0  0  0  0  0  0  0  0  0
  -41.0003   58.6969   65.9090 O   0  0  0  0  0  0  0  0  0  0  0  0
  -39.8912   59.3412   65.2445 C   0  0  0  0  0  0  0  0  0  0  0  0
  -39.4849   58.6001   63.9884 C   0  0  0  0  0  0  0  0  0  0  0  0
  -39.9942   59.2528   62.8174 O   0  0  0  0  0  0  0  0  0  0  0  0
  -39.6061   60.1389   62.7465 H   0  0  0  0  0  0  0  0  0  0  0  0
  -37.9873   58.4440   63.8656 C   0  0  0  0  0  0  0  0  0  0  0  0
  -37.2838   59.6243   64.3232 O   0  0  0  0  0  0  0  0  0  0  0  0
  -36.9779   61.0376   63.6268 P   0  0  0  0  0  0  0  0  0  0  0  0
  -37.7001   62.1263   64.4188 O   0  0  0  0  0  0  0  0  0  0  0  0
  -37.5230   61.0160   62.2518 O   0  0  0  0  0  0  0  0  0  0  0  0
  -38.4723   60.8193   62.2833 H   0  0  0  0  0  0  0  0  0  0  0  0
  -35.3669   61.3684   63.6185 O   0  0  0  0  0  0  0  0  0  0  0  0
  -34.7104   62.4299   64.3637 C   0  0  0  0  0  0  0  0  0  0  0  0
  -33.8400   63.2508   63.4448 C   0  0  0  0  0  0  0  0  0  0  0  0
  -33.2128   64.4974   64.0409 N   0  0  0  0  0  0  0  0  0  0  0  0
  -32.3084   65.1547   63.0484 C   0  0  0  0  0  0  0  0  0  0  0  0
  -32.4136   64.1033   65.2394 C   0  0  0  0  0  0  0  0  0  0  0  0
  -34.2755   65.4766   64.4515 C   0  0  0  0  0  0  0  0  0  0  0  0
 34 33  1  0  0  0
 34 35  1  0  0  0
 34 36  1  0  0  0
 34 37  1  0  0  0
 22 23  1  0  0  0
 22 25  1  0  0  0
 22 21  1  0  0  0
 27 26  1  0  0  0
 27 28  2  0  0  0
 27 31  1  0  0  0
 27 29  1  0  0  0
 25 26  1  0  0  0
 32 33  1  0  0  0
 32 31  1  0  0  0
 20 21  1  0  0  0
 20  2  1  0  0  0
  1  2  2  0  0  0
  2  3  1  0  0  0
  3  4  1  0  0  0
  4  5  1  0  0  0
  5  6  1  0  0  0
  6  7  1  0  0  0
  7  8  1  0  0  0
  8  9  1  0  0  0
  9 10  1  0  0  0
 10 11  2  0  0  0
 11 12  1  0  0  0
 12 13  1  0  0  0
 13 14  1  0  0  0
 14 15  1  0  0  0
 15 16  1  0  0  0
 16 17  1  0  0  0
 17 18  1  0  0  0
 18 19  1  0  0  0
 23 24  1  0  0  0
 29 30  1  0  0  0
M  CHG 1  28  -1
M  END
> <minimizedAffinity>
-7.75312

> <CNNscore>
0.7562315464

> <CNNaffinity>
6.3568959236

> <CNN_VS>
4.8072853088

> <CNNaffinity_variance>
0.3929843903

$$$$



 37 36  0  0  0  0  0  0  0  0999 V2000
  -42.5815   59.7208   67.3209 O   0  0  0  0  0  0  0  0  0  0  0  0
  -42.4610   58.9715   66.3836 C   0  0  0  0  0  0  0  0  0  0  0  0
  -42.8653   57.5292   66.3696 C   0  0  0  0  0  0  0  0  0  0  0  0
  -44.3722   57.3279   66.4764 C   0  0  0  0  0  0  0  0  0  0  0  0
  -45.0253   56.8105   65.2062 C   0  0  0  0  0  0  0  0  0  0  0  0
  -45.6318   57.9071   64.3485 C   0  0  0  0  0  0  0  0  0  0  0  0
  -47.0858   58.1876   64.6871 C   0  0  0  0  0  0  0  0  0  0  0  0
  -47.2774   59.5594   65.2944 C   0  0  0  0  0  0  0  0  0  0  0  0
  -48.6065   59.7646   65.9925 C   0  0  0  0  0  0  0  0  0  0  0  0
  -49.5825   58.6750   65.7639 C   0  0  0  0  0  0  0  0  0  0  0  0
  -50.5924   58.7028   64.9188 C   0  0  0  0  0  0  0  0  0  0  0  0
  -50.9549   59.8081   63.9810 C   0  0  0  0  0  0  0  0  0  0  0  0
  -51.5947   59.2359   62.7150 C   0  0  0  0  0  0  0  0  0  0  0  0
  -50.6188   58.7769   61.6415 C   0  0  0  0  0  0  0  0  0  0  0  0
  -51.0974   57.6036   60.7950 C   0  0  0  0  0  0  0  0  0  0  0  0
  -49.9796   56.6474   60.3918 C   0  0  0  0  0  0  0  0  0  0  0  0
  -48.6494   57.3359   60.1306 C   0  0  0  0  0  0  0  0  0  0  0  0
  -48.2145   57.3816   58.6735 C   0  0  0  0  0  0  0  0  0  0  0  0
  -47.2937   56.2582   58.3079 C   0  0  0  0  0  0  0  0  0  0  0  0
  -41.9537   59.3254   65.1991 O   0  0  0  0  0  0  0  0  0  0  0  0
  -40.5159   59.3475   65.0611 C   0  0  0  0  0  0  0  0  0  0  0  0
  -40.0949   59.7023   63.6508 C   0  0  0  0  0  0  0  0  0  0  0  0
  -39.3565   60.9314   63.6271 O   0  0  0  0  0  0  0  0  0  0  0  0
  -38.5373   60.8263   64.1359 H   0  0  0  0  0  0  0  0  0  0  0  0
  -39.2777   58.6123   62.9977 C   0  0  0  0  0  0  0  0  0  0  0  0
  -39.4878   58.5668   61.5655 O   0  0  0  0  0  0  0  0  0  0  0  0
  -38.9877   59.5133   60.3697 P   0  0  0  0  0  0  0  0  0  0  0  0
  -37.7787   60.3067   60.8625 O   0  0  0  0  0  0  0  0  0  0  0  0
  -40.0698   60.4645   60.0341 O   0  0  0  0  0  0  0  0  0  0  0  0
  -40.3133   60.9696   60.8256 H   0  0  0  0  0  0  0  0  0  0  0  0
  -38.5437   58.6347   59.0521 O   0  0  0  0  0  0  0  0  0  0  0  0
  -37.1802   58.3704   58.6233 C   0  0  0  0  0  0  0  0  0  0  0  0
  -36.9131   56.8855   58.6201 C   0  0  0  0  0  0  0  0  0  0  0  0
  -35.7760   56.4003   59.4999 N   0  0  0  0  0  0  0  0  0  0  0  0
  -34.4565   56.7119   58.8698 C   0  0  0  0  0  0  0  0  0  0  0  0
  -35.8979   54.9210   59.6649 C   0  0  0  0  0  0  0  0  0  0  0  0
  -35.8364   57.0581   60.8490 C   0  0  0  0  0  0  0  0  0  0  0  0
 34 33  1  0  0  0
 34 35  1  0  0  0
 34 36  1  0  0  0
 34 37  1  0  0  0
 22 23  1  0  0  0
 22 25  1  0  0  0
 22 21  1  0  0  0
 27 26  1  0  0  0
 27 28  2  0  0  0
 27 31  1  0  0  0
 27 29  1  0  0  0
 25 26  1  0  0  0
 32 33  1  0  0  0
 32 31  1  0  0  0
 20 21  1  0  0  0
 20  2  1  0  0  0
  1  2  2  0  0  0
  2  3  1  0  0  0
  3  4  1  0  0  0
  4  5  1  0  0  0
  5  6  1  0  0  0
  6  7  1  0  0  0
  7  8  1  0  0  0
  8  9  1  0  0  0
  9 10  1  0  0  0
 10 11  2  0  0  0
 11 12  1  0  0  0
 12 13  1  0  0  0
 13 14  1  0  0  0
 14 15  1  0  0  0
 15 16  1  0  0  0
 16 17  1  0  0  0
 17 18  1  0  0  0
 18 19  1  0  0  0
 23 24  1  0  0  0
 29 30  1  0  0  0
M  CHG 1  28  -1
M  END
> <minimizedAffinity>
-8.34731

> <CNNscore>
0.7511096597

> <CNNaffinity>
6.7155723572

> <CNN_VS>
5.0441312790

> <CNNaffinity_variance>
0.3401784003

$$$$



 37 36  0  0  0  0  0  0  0  0999 V2000
  -40.2554   58.2689   65.0208 O   0  0  0  0  0  0  0  0  0  0  0  0
  -40.7114   59.3804   64.9148 C   0  0  0  0  0  0  0  0  0  0  0  0
  -41.8735   59.9182   65.6920 C   0  0  0  0  0  0  0  0  0  0  0  0
  -43.1499   59.1080   65.4993 C   0  0  0  0  0  0  0  0  0  0  0  0
  -43.3135   57.9573   66.4774 C   0  0  0  0  0  0  0  0  0  0  0  0
  -44.3293   56.9219   66.0279 C   0  0  0  0  0  0  0  0  0  0  0  0
  -45.7247   57.4972   65.8561 C   0  0  0  0  0  0  0  0  0  0  0  0
  -46.7922   56.5873   66.4219 C   0  0  0  0  0  0  0  0  0  0  0  0
  -48.2144   57.0053   66.1079 C   0  0  0  0  0  0  0  0  0  0  0  0
  -48.3898   58.4653   65.9346 C   0  0  0  0  0  0  0  0  0  0  0  0
  -48.7745   59.0749   64.8323 C   0  0  0  0  0  0  0  0  0  0  0  0
  -49.1564   58.4393   63.5351 C   0  0  0  0  0  0  0  0  0  0  0  0
  -50.6774   58.4431   63.3744 C   0  0  0  0  0  0  0  0  0  0  0  0
  -51.1821   58.3396   61.9426 C   0  0  0  0  0  0  0  0  0  0  0  0
  -50.1489   58.6640   60.8704 C   0  0  0  0  0  0  0  0  0  0  0  0
  -49.8321   57.4869   59.9537 C   0  0  0  0  0  0  0  0  0  0  0  0
  -48.3750   57.4199   59.5245 C   0  0  0  0  0  0  0  0  0  0  0  0
  -48.1417   57.0589   58.0652 C   0  0  0  0  0  0  0  0  0  0  0  0
  -46.8105   57.5226   57.5590 C   0  0  0  0  0  0  0  0  0  0  0  0
  -40.2328   60.3129   64.0859 O   0  0  0  0  0  0  0  0  0  0  0  0
  -40.4557   60.1345   62.6698 C   0  0  0  0  0  0  0  0  0  0  0  0
  -39.3048   59.4047   62.0101 C   0  0  0  0  0  0  0  0  0  0  0  0
  -39.4055   59.4684   60.5810 O   0  0  0  0  0  0  0  0  0  0  0  0
  -39.3407   60.3925   60.2933 H   0  0  0  0  0  0  0  0  0  0  0  0
  -37.9577   59.9339   62.4432 C   0  0  0  0  0  0  0  0  0  0  0  0
  -37.3542   59.1002   63.4621 O   0  0  0  0  0  0  0  0  0  0  0  0
  -35.8348   58.6650   63.7415 P   0  0  0  0  0  0  0  0  0  0  0  0
  -35.8494   57.3279   64.4804 O   0  0  0  0  0  0  0  0  0  0  0  0
  -35.2047   59.6787   64.6154 O   0  0  0  0  0  0  0  0  0  0  0  0
  -35.7189   59.7651   65.4333 H   0  0  0  0  0  0  0  0  0  0  0  0
  -34.9923   58.4871   62.3402 O   0  0  0  0  0  0  0  0  0  0  0  0
  -34.7798   57.2394   61.6255 C   0  0  0  0  0  0  0  0  0  0  0  0
  -35.2691   57.3630   60.2037 C   0  0  0  0  0  0  0  0  0  0  0  0
  -36.4081   56.4462   59.7976 N   0  0  0  0  0  0  0  0  0  0  0  0
  -37.4872   56.4615   60.8321 C   0  0  0  0  0  0  0  0  0  0  0  0
  -35.8788   55.0556   59.6687 C   0  0  0  0  0  0  0  0  0  0  0  0
  -36.9905   56.8807   58.4829 C   0  0  0  0  0  0  0  0  0  0  0  0
 34 33  1  0  0  0
 34 35  1  0  0  0
 34 36  1  0  0  0
 34 37  1  0  0  0
 22 23  1  0  0  0
 22 25  1  0  0  0
 22 21  1  0  0  0
 27 26  1  0  0  0
 27 28  2  0  0  0
 27 31  1  0  0  0
 27 29  1  0  0  0
 25 26  1  0  0  0
 32 33  1  0  0  0
 32 31  1  0  0  0
 20 21  1  0  0  0
 20  2  1  0  0  0
  1  2  2  0  0  0
  2  3  1  0  0  0
  3  4  1  0  0  0
  4  5  1  0  0  0
  5  6  1  0  0  0
  6  7  1  0  0  0
  7  8  1  0  0  0
  8  9  1  0  0  0
  9 10  1  0  0  0
 10 11  2  0  0  0
 11 12  1  0  0  0
 12 13  1  0  0  0
 13 14  1  0  0  0
 14 15  1  0  0  0
 15 16  1  0  0  0
 16 17  1  0  0  0
 17 18  1  0  0  0
 18 19  1  0  0  0
 23 24  1  0  0  0
 29 30  1  0  0  0
M  CHG 1  28  -1
M  END
> <minimizedAffinity>
-7.56808

> <CNNscore>
0.7473608255

> <CNNaffinity>
6.9168062210

> <CNN_VS>
5.1693501472

> <CNNaffinity_variance>
0.8294402361

$$$$



 37 36  0  0  0  0  0  0  0  0999 V2000
  -42.6383   59.4208   67.2905 O   0  0  0  0  0  0  0  0  0  0  0  0
  -43.2593   59.0159   66.3391 C   0  0  0  0  0  0  0  0  0  0  0  0
  -44.3840   58.0281   66.3949 C   0  0  0  0  0  0  0  0  0  0  0  0
  -45.2066   57.9832   65.1128 C   0  0  0  0  0  0  0  0  0  0  0  0
  -46.6843   57.7040   65.3276 C   0  0  0  0  0  0  0  0  0  0  0  0
  -47.5899   58.4958   64.4008 C   0  0  0  0  0  0  0  0  0  0  0  0
  -48.1004   59.7816   65.0281 C   0  0  0  0  0  0  0  0  0  0  0  0
  -49.2761   59.5414   65.9488 C   0  0  0  0  0  0  0  0  0  0  0  0
  -50.5334   59.0528   65.2587 C   0  0  0  0  0  0  0  0  0  0  0  0
  -51.0498   59.9750   64.2218 C   0  0  0  0  0  0  0  0  0  0  0  0
  -51.3850   59.6486   62.9907 C   0  0  0  0  0  0  0  0  0  0  0  0
  -51.3605   58.2853   62.3795 C   0  0  0  0  0  0  0  0  0  0  0  0
  -49.9954   58.0177   61.7436 C   0  0  0  0  0  0  0  0  0  0  0  0
  -49.7996   58.5988   60.3509 C   0  0  0  0  0  0  0  0  0  0  0  0
  -49.8158   57.5786   59.2191 C   0  0  0  0  0  0  0  0  0  0  0  0
  -48.6997   56.5436   59.3158 C   0  0  0  0  0  0  0  0  0  0  0  0
  -47.3031   57.1433   59.2728 C   0  0  0  0  0  0  0  0  0  0  0  0
  -46.8890   57.7346   57.9336 C   0  0  0  0  0  0  0  0  0  0  0  0
  -47.0931   56.7855   56.7929 C   0  0  0  0  0  0  0  0  0  0  0  0
  -43.0407   59.4034   65.0790 O   0  0  0  0  0  0  0  0  0  0  0  0
  -41.7091   59.2373   64.5441 C   0  0  0  0  0  0  0  0  0  0  0  0
  -41.1696   60.5323   63.9749 C   0  0  0  0  0  0  0  0  0  0  0  0
  -40.0470   61.0010   64.7343 O   0  0  0  0  0  0  0  0  0  0  0  0
  -39.3243   60.3568   64.6740 H   0  0  0  0  0  0  0  0  0  0  0  0
  -40.7766   60.4081   62.5215 C   0  0  0  0  0  0  0  0  0  0  0  0
  -39.6143   59.5616   62.3486 O   0  0  0  0  0  0  0  0  0  0  0  0
  -38.0563   59.7891   62.6598 P   0  0  0  0  0  0  0  0  0  0  0  0
  -37.7262   59.0926   63.9789 O   0  0  0  0  0  0  0  0  0  0  0  0
  -37.8119   61.2393   62.8193 O   0  0  0  0  0  0  0  0  0  0  0  0
  -38.3821   61.5879   63.5224 H   0  0  0  0  0  0  0  0  0  0  0  0
  -37.1072   59.1569   61.4746 O   0  0  0  0  0  0  0  0  0  0  0  0
  -36.9729   57.7461   61.1513 C   0  0  0  0  0  0  0  0  0  0  0  0
  -36.2698   57.5793   59.8269 C   0  0  0  0  0  0  0  0  0  0  0  0
  -35.3316   56.3931   59.7031 N   0  0  0  0  0  0  0  0  0  0  0  0
  -34.4879   56.5184   58.4752 C   0  0  0  0  0  0  0  0  0  0  0  0
  -36.1483   55.1465   59.6059 C   0  0  0  0  0  0  0  0  0  0  0  0
  -34.4317   56.3061   60.9028 C   0  0  0  0  0  0  0  0  0  0  0  0
 34 33  1  0  0  0
 34 35  1  0  0  0
 34 36  1  0  0  0
 34 37  1  0  0  0
 22 23  1  0  0  0
 22 25  1  0  0  0
 22 21  1  0  0  0
 27 26  1  0  0  0
 27 28  2  0  0  0
 27 31  1  0  0  0
 27 29  1  0  0  0
 25 26  1  0  0  0
 32 33  1  0  0  0
 32 31  1  0  0  0
 20 21  1  0  0  0
 20  2  1  0  0  0
  1  2  2  0  0  0
  2  3  1  0  0  0
  3  4  1  0  0  0
  4  5  1  0  0  0
  5  6  1  0  0  0
  6  7  1  0  0  0
  7  8  1  0  0  0
  8  9  1  0  0  0
  9 10  1  0  0  0
 10 11  2  0  0  0
 11 12  1  0  0  0
 12 13  1  0  0  0
 13 14  1  0  0  0
 14 15  1  0  0  0
 15 16  1  0  0  0
 16 17  1  0  0  0
 17 18  1  0  0  0
 18 19  1  0  0  0
 23 24  1  0  0  0
 29 30  1  0  0  0
M  CHG 1  28  -1
M  END
> <minimizedAffinity>
-8.06768

> <CNNscore>
0.7172736526

> <CNNaffinity>
6.7476172447

> <CNN_VS>
4.8398880959

> <CNNaffinity_variance>
0.4878030717

$$$$



 37 36  0  0  0  0  0  0  0  0999 V2000
  -42.3216   58.6579   67.4975 O   0  0  0  0  0  0  0  0  0  0  0  0
  -42.3105   58.4888   66.3034 C   0  0  0  0  0  0  0  0  0  0  0  0
  -43.4217   57.8806   65.5039 C   0  0  0  0  0  0  0  0  0  0  0  0
  -44.5417   58.8648   65.1887 C   0  0  0  0  0  0  0  0  0  0  0  0
  -45.9297   58.3725   65.5612 C   0  0  0  0  0  0  0  0  0  0  0  0
  -46.8059   59.4468   66.1811 C   0  0  0  0  0  0  0  0  0  0  0  0
  -47.7736   60.0673   65.1882 C   0  0  0  0  0  0  0  0  0  0  0  0
  -48.1991   59.0889   64.1162 C   0  0  0  0  0  0  0  0  0  0  0  0
  -49.4411   58.2861   64.4462 C   0  0  0  0  0  0  0  0  0  0  0  0
  -50.7062   59.0377   64.2829 C   0  0  0  0  0  0  0  0  0  0  0  0
  -51.2556   59.3926   63.1397 C   0  0  0  0  0  0  0  0  0  0  0  0
  -50.7569   59.0869   61.7648 C   0  0  0  0  0  0  0  0  0  0  0  0
  -51.2267   57.6975   61.3309 C   0  0  0  0  0  0  0  0  0  0  0  0
  -50.2737   56.9433   60.4153 C   0  0  0  0  0  0  0  0  0  0  0  0
  -49.2704   57.8157   59.6704 C   0  0  0  0  0  0  0  0  0  0  0  0
  -47.8840   57.1900   59.5586 C   0  0  0  0  0  0  0  0  0  0  0  0
  -47.1908   57.4698   58.2347 C   0  0  0  0  0  0  0  0  0  0  0  0
  -47.7272   56.6932   57.0415 C   0  0  0  0  0  0  0  0  0  0  0  0
  -47.5741   55.2115   57.1980 C   0  0  0  0  0  0  0  0  0  0  0  0
  -41.2965   58.8351   65.5050 O   0  0  0  0  0  0  0  0  0  0  0  0
  -40.4999   59.9789   65.8846 C   0  0  0  0  0  0  0  0  0  0  0  0
  -39.0332   59.6234   66.0060 C   0  0  0  0  0  0  0  0  0  0  0  0
  -38.7891   58.2829   65.5590 O   0  0  0  0  0  0  0  0  0  0  0  0
  -39.0080   58.2114   64.6167 H   0  0  0  0  0  0  0  0  0  0  0  0
  -38.1405   60.5769   65.2469 C   0  0  0  0  0  0  0  0  0  0  0  0
  -37.8664   61.7786   66.0073 O   0  0  0  0  0  0  0  0  0  0  0  0
  -36.4980   62.4528   66.5061 P   0  0  0  0  0  0  0  0  0  0  0  0
  -35.3328   61.6773   65.8937 O   0  0  0  0  0  0  0  0  0  0  0  0
  -36.4204   62.3336   67.9786 O   0  0  0  0  0  0  0  0  0  0  0  0
  -36.4835   61.3992   68.2311 H   0  0  0  0  0  0  0  0  0  0  0  0
  -36.3946   64.0250   66.0344 O   0  0  0  0  0  0  0  0  0  0  0  0
  -36.0399   64.4950   64.7054 C   0  0  0  0  0  0  0  0  0  0  0  0
  -34.7912   65.3394   64.7671 C   0  0  0  0  0  0  0  0  0  0  0  0
  -33.5215   64.7113   64.2230 N   0  0  0  0  0  0  0  0  0  0  0  0
  -32.6782   65.7406   63.5415 C   0  0  0  0  0  0  0  0  0  0  0  0
  -33.8964   63.6579   63.2329 C   0  0  0  0  0  0  0  0  0  0  0  0
  -32.7241   64.0890   65.3336 C   0  0  0  0  0  0  0  0  0  0  0  0
 34 33  1  0  0  0
 34 35  1  0  0  0
 34 36  1  0  0  0
 34 37  1  0  0  0
 22 23  1  0  0  0
 22 25  1  0  0  0
 22 21  1  0  0  0
 27 26  1  0  0  0
 27 28  2  0  0  0
 27 31  1  0  0  0
 27 29  1  0  0  0
 25 26  1  0  0  0
 32 33  1  0  0  0
 32 31  1  0  0  0
 20 21  1  0  0  0
 20  2  1  0  0  0
  1  2  2  0  0  0
  2  3  1  0  0  0
  3  4  1  0  0  0
  4  5  1  0  0  0
  5  6  1  0  0  0
  6  7  1  0  0  0
  7  8  1  0  0  0
  8  9  1  0  0  0
  9 10  1  0  0  0
 10 11  2  0  0  0
 11 12  1  0  0  0
 12 13  1  0  0  0
 13 14  1  0  0  0
 14 15  1  0  0  0
 15 16  1  0  0  0
 16 17  1  0  0  0
 17 18  1  0  0  0
 18 19  1  0  0  0
 23 24  1  0  0  0
 29 30  1  0  0  0
M  CHG 1  28  -1
M  END
> <minimizedAffinity>
-8.59979

> <CNNscore>
0.6989436150

> <CNNaffinity>
6.1774320602

> <CNN_VS>
4.3176765442

> <CNNaffinity_variance>
0.3029625714

$$$$
