


 37 36  0  0  0  0  0  0  0  0999 V2000
  -40.8116   58.7978   62.3263 O   0  0  0  0  0  0  0  0  0  0  0  0
  -41.0226   58.1863   63.3443 C   0  0  0  0  0  0  0  0  0  0  0  0
  -42.3190   57.5299   63.7080 C   0  0  0  0  0  0  0  0  0  0  0  0
  -43.4489   58.5248   63.9452 C   0  0  0  0  0  0  0  0  0  0  0  0
  -44.5874   57.9868   64.7948 C   0  0  0  0  0  0  0  0  0  0  0  0
  -44.5610   58.4878   66.2281 C   0  0  0  0  0  0  0  0  0  0  0  0
  -45.9436   58.5714   66.8516 C   0  0  0  0  0  0  0  0  0  0  0  0
  -46.9876   57.8524   66.0266 C   0  0  0  0  0  0  0  0  0  0  0  0
  -48.2366   58.6606   65.7389 C   0  0  0  0  0  0  0  0  0  0  0  0
  -48.0534   59.7077   64.7082 C   0  0  0  0  0  0  0  0  0  0  0  0
  -49.0130   60.3232   64.0486 C   0  0  0  0  0  0  0  0  0  0  0  0
  -50.4862   60.1380   64.2159 C   0  0  0  0  0  0  0  0  0  0  0  0
  -51.0435   59.2888   63.0723 C   0  0  0  0  0  0  0  0  0  0  0  0
  -50.1830   59.2385   61.8183 C   0  0  0  0  0  0  0  0  0  0  0  0
  -49.8473   57.8369   61.3232 C   0  0  0  0  0  0  0  0  0  0  0  0
  -48.7229   57.8078   60.2931 C   0  0  0  0  0  0  0  0  0  0  0  0
  -49.2026   57.5738   58.8694 C   0  0  0  0  0  0  0  0  0  0  0  0
  -48.1572   57.0210   57.9123 C   0  0  0  0  0  0  0  0  0  0  0  0
  -47.1411   58.0451   57.5094 C   0  0  0  0  0  0  0  0  0  0  0  0
  -40.1149   57.9911   64.3054 O   0  0  0  0  0  0  0  0  0  0  0  0
  -40.2498   58.7536   65.5249 C   0  0  0  0  0  0  0  0  0  0  0  0
  -39.6458   60.1354   65.3901 C   0  0  0  0  0  0  0  0  0  0  0  0
  -40.4304   61.1113   66.0891 O   0  0  0  0  0  0  0  0  0  0  0  0
  -40.4305   60.9071   67.0374 H   0  0  0  0  0  0  0  0  0  0  0  0
  -38.2177   60.1946   65.8793 C   0  0  0  0  0  0  0  0  0  0  0  0
  -37.8055   61.5513   66.1741 O   0  0  0  0  0  0  0  0  0  0  0  0
  -36.3895   62.2986   66.0619 P   0  0  0  0  0  0  0  0  0  0  0  0
  -36.1213   63.0143   67.3848 O   0  0  0  0  0  0  0  0  0  0  0  0
  -36.4723   63.3117   64.9872 O   0  0  0  0  0  0  0  0  0  0  0  0
  -37.1984   63.9261   65.1772 H   0  0  0  0  0  0  0  0  0  0  0  0
  -35.1681   61.2344   65.7778 O   0  0  0  0  0  0  0  0  0  0  0  0
  -34.8212   60.6586   64.4890 C   0  0  0  0  0  0  0  0  0  0  0  0
  -34.6662   59.1628   64.6109 C   0  0  0  0  0  0  0  0  0  0  0  0
  -35.5233   58.3160   63.6885 N   0  0  0  0  0  0  0  0  0  0  0  0
  -36.3366   57.3408   64.4777 C   0  0  0  0  0  0  0  0  0  0  0  0
  -34.6267   57.5626   62.7617 C   0  0  0  0  0  0  0  0  0  0  0  0
  -36.4509   59.1842   62.8870 C   0  0  0  0  0  0  0  0  0  0  0  0
 34 33  1  0  0  0
 34 35  1  0  0  0
 34 36  1  0  0  0
 34 37  1  0  0  0
 22 23  1  0  0  0
 22 25  1  0  0  0
 22 21  1  0  0  0
 27 26  1  0  0  0
 27 28  2  0  0  0
 27 31  1  0  0  0
 27 29  1  0  0  0
 25 26  1  0  0  0
 32 33  1  0  0  0
 32 31  1  0  0  0
 20 21  1  0  0  0
 20  2  1  0  0  0
  1  2  2  0  0  0
  2  3  1  0  0  0
  3  4  1  0  0  0
  4  5  1  0  0  0
  5  6  1  0  0  0
  6  7  1  0  0  0
  7  8  1  0  0  0
  8  9  1  0  0  0
  9 10  1  0  0  0
 10 11  2  0  0  0
 11 12  1  0  0  0
 12 13  1  0  0  0
 13 14  1  0  0  0
 14 15  1  0  0  0
 15 16  1  0  0  0
 16 17  1  0  0  0
 17 18  1  0  0  0
 18 19  1  0  0  0
 23 24  1  0  0  0
 29 30  1  0  0  0
M  CHG 1  28  -1
M  END
> <minimizedAffinity>
-7.73030

> <CNNscore>
0.8093273044

> <CNNaffinity>
6.8974099159

> <CNN_VS>
5.5822620392

> <CNNaffinity_variance>
0.2145195454

$$$$



 37 36  0  0  0  0  0  0  0  0999 V2000
  -41.9739   59.4590   65.7696 O   0  0  0  0  0  0  0  0  0  0  0  0
  -42.3076   58.5441   65.0581 C   0  0  0  0  0  0  0  0  0  0  0  0
  -43.2023   57.4131   65.4631 C   0  0  0  0  0  0  0  0  0  0  0  0
  -44.0222   57.7149   66.7118 C   0  0  0  0  0  0  0  0  0  0  0  0
  -45.3015   58.4901   66.4472 C   0  0  0  0  0  0  0  0  0  0  0  0
  -46.5576   57.7409   66.8558 C   0  0  0  0  0  0  0  0  0  0  0  0
  -47.5851   57.6553   65.7403 C   0  0  0  0  0  0  0  0  0  0  0  0
  -47.5142   58.8417   64.8049 C   0  0  0  0  0  0  0  0  0  0  0  0
  -48.6213   59.8602   64.9862 C   0  0  0  0  0  0  0  0  0  0  0  0
  -49.9189   59.2747   65.3931 C   0  0  0  0  0  0  0  0  0  0  0  0
  -51.0023   59.1968   64.6482 C   0  0  0  0  0  0  0  0  0  0  0  0
  -51.1560   59.6375   63.2288 C   0  0  0  0  0  0  0  0  0  0  0  0
  -50.9944   58.4438   62.2863 C   0  0  0  0  0  0  0  0  0  0  0  0
  -49.5994   58.2527   61.7093 C   0  0  0  0  0  0  0  0  0  0  0  0
  -49.4124   58.7744   60.2898 C   0  0  0  0  0  0  0  0  0  0  0  0
  -49.0331   57.6896   59.2870 C   0  0  0  0  0  0  0  0  0  0  0  0
  -47.8420   58.0518   58.4143 C   0  0  0  0  0  0  0  0  0  0  0  0
  -47.8044   57.3779   57.0509 C   0  0  0  0  0  0  0  0  0  0  0  0
  -47.4416   55.9269   57.1313 C   0  0  0  0  0  0  0  0  0  0  0  0
  -41.9333   58.4093   63.7824 O   0  0  0  0  0  0  0  0  0  0  0  0
  -40.5229   58.2643   63.5054 C   0  0  0  0  0  0  0  0  0  0  0  0
  -40.2393   57.0267   62.6808 C   0  0  0  0  0  0  0  0  0  0  0  0
  -41.1194   55.9537   63.0421 O   0  0  0  0  0  0  0  0  0  0  0  0
  -42.0350   56.2063   62.8452 H   0  0  0  0  0  0  0  0  0  0  0  0
  -40.3424   57.2829   61.1955 C   0  0  0  0  0  0  0  0  0  0  0  0
  -39.7674   58.5604   60.8285 O   0  0  0  0  0  0  0  0  0  0  0  0
  -38.2603   59.0182   60.5205 P   0  0  0  0  0  0  0  0  0  0  0  0
  -38.0606   60.4202   61.0938 O   0  0  0  0  0  0  0  0  0  0  0  0
  -38.0736   59.0784   59.0543 O   0  0  0  0  0  0  0  0  0  0  0  0
  -38.7275   59.6829   58.6697 H   0  0  0  0  0  0  0  0  0  0  0  0
  -37.1689   58.0017   61.2138 O   0  0  0  0  0  0  0  0  0  0  0  0
  -36.6154   58.1287   62.5518 C   0  0  0  0  0  0  0  0  0  0  0  0
  -35.1460   58.4631   62.4787 C   0  0  0  0  0  0  0  0  0  0  0  0
  -34.6173   59.4237   63.5278 N   0  0  0  0  0  0  0  0  0  0  0  0
  -33.4383   60.1772   63.0014 C   0  0  0  0  0  0  0  0  0  0  0  0
  -34.1957   58.6376   64.7256 C   0  0  0  0  0  0  0  0  0  0  0  0
  -35.6817   60.4058   63.9266 C   0  0  0  0  0  0  0  0  0  0  0  0
 34 33  1  0  0  0
 34 35  1  0  0  0
 34 36  1  0  0  0
 34 37  1  0  0  0
 22 23  1  0  0  0
 22 25  1  0  0  0
 22 21  1  0  0  0
 27 26  1  0  0  0
 27 28  2  0  0  0
 27 31  1  0  0  0
 27 29  1  0  0  0
 25 26  1  0  0  0
 32 33  1  0  0  0
 32 31  1  0  0  0
 20 21  1  0  0  0
 20  2  1  0  0  0
  1  2  2  0  0  0
  2  3  1  0  0  0
  3  4  1  0  0  0
  4  5  1  0  0  0
  5  6  1  0  0  0
  6  7  1  0  0  0
  7  8  1  0  0  0
  8  9  1  0  0  0
  9 10  1  0  0  0
 10 11  2  0  0  0
 11 12  1  0  0  0
 12 13  1  0  0  0
 13 14  1  0  0  0
 14 15  1  0  0  0
 15 16  1  0  0  0
 16 17  1  0  0  0
 17 18  1  0  0  0
 18 19  1  0  0  0
 23 24  1  0  0  0
 29 30  1  0  0  0
M  CHG 1  28  -1
M  END
> <minimizedAffinity>
-7.97399

> <CNNscore>
0.7785043716

> <CNNaffinity>
6.9785742760

> <CNN_VS>
5.4328503609

> <CNNaffinity_variance>
0.3727366924

$$$$



 37 36  0  0  0  0  0  0  0  0999 V2000
  -40.9030   61.2912   66.0168 O   0  0  0  0  0  0  0  0  0  0  0  0
  -41.5256   60.2768   65.8218 C   0  0  0  0  0  0  0  0  0  0  0  0
  -42.2722   59.5041   66.8654 C   0  0  0  0  0  0  0  0  0  0  0  0
  -42.6397   58.0940   66.4189 C   0  0  0  0  0  0  0  0  0  0  0  0
  -44.1295   57.7984   66.4452 C   0  0  0  0  0  0  0  0  0  0  0  0
  -44.7625   57.7607   65.0654 C   0  0  0  0  0  0  0  0  0  0  0  0
  -45.8609   58.7951   64.8895 C   0  0  0  0  0  0  0  0  0  0  0  0
  -46.8126   58.8244   66.0647 C   0  0  0  0  0  0  0  0  0  0  0  0
  -48.1456   59.4888   65.7858 C   0  0  0  0  0  0  0  0  0  0  0  0
  -49.3000   58.5623   65.8188 C   0  0  0  0  0  0  0  0  0  0  0  0
  -50.4643   58.7525   65.2333 C   0  0  0  0  0  0  0  0  0  0  0  0
  -50.8673   59.9108   64.3797 C   0  0  0  0  0  0  0  0  0  0  0  0
  -51.2383   59.4273   62.9768 C   0  0  0  0  0  0  0  0  0  0  0  0
  -50.4457   58.2320   62.4683 C   0  0  0  0  0  0  0  0  0  0  0  0
  -50.9698   57.6134   61.1779 C   0  0  0  0  0  0  0  0  0  0  0  0
  -50.2345   58.0922   59.9304 C   0  0  0  0  0  0  0  0  0  0  0  0
  -48.7491   57.7676   59.9326 C   0  0  0  0  0  0  0  0  0  0  0  0
  -48.1365   57.5102   58.5641 C   0  0  0  0  0  0  0  0  0  0  0  0
  -47.2578   56.2973   58.5412 C   0  0  0  0  0  0  0  0  0  0  0  0
  -41.6530   59.6914   64.6273 O   0  0  0  0  0  0  0  0  0  0  0  0
  -42.3743   60.4061   63.5998 C   0  0  0  0  0  0  0  0  0  0  0  0
  -41.4611   60.8347   62.4708 C   0  0  0  0  0  0  0  0  0  0  0  0
  -40.1183   61.0232   62.9372 O   0  0  0  0  0  0  0  0  0  0  0  0
  -39.7679   60.1796   63.2635 H   0  0  0  0  0  0  0  0  0  0  0  0
  -41.4609   59.8547   61.3210 C   0  0  0  0  0  0  0  0  0  0  0  0
  -40.2911   60.0101   60.4815 O   0  0  0  0  0  0  0  0  0  0  0  0
  -38.8687   59.2668   60.4624 P   0  0  0  0  0  0  0  0  0  0  0  0
  -37.8358   60.1963   61.0974 O   0  0  0  0  0  0  0  0  0  0  0  0
  -38.4805   59.0228   59.0560 O   0  0  0  0  0  0  0  0  0  0  0  0
  -38.4620   59.8649   58.5749 H   0  0  0  0  0  0  0  0  0  0  0  0
  -38.9125   57.8614   61.3156 O   0  0  0  0  0  0  0  0  0  0  0  0
  -38.5025   57.6909   62.6997 C   0  0  0  0  0  0  0  0  0  0  0  0
  -37.0405   57.3250   62.7692 C   0  0  0  0  0  0  0  0  0  0  0  0
  -36.1665   58.1938   63.6547 N   0  0  0  0  0  0  0  0  0  0  0  0
  -36.9877   59.2418   64.3346 C   0  0  0  0  0  0  0  0  0  0  0  0
  -35.1372   58.8606   62.8025 C   0  0  0  0  0  0  0  0  0  0  0  0
  -35.4825   57.3597   64.7002 C   0  0  0  0  0  0  0  0  0  0  0  0
 34 33  1  0  0  0
 34 35  1  0  0  0
 34 36  1  0  0  0
 34 37  1  0  0  0
 22 23  1  0  0  0
 22 25  1  0  0  0
 22 21  1  0  0  0
 27 26  1  0  0  0
 27 28  2  0  0  0
 27 31  1  0  0  0
 27 29  1  0  0  0
 25 26  1  0  0  0
 32 33  1  0  0  0
 32 31  1  0  0  0
 20 21  1  0  0  0
 20  2  1  0  0  0
  1  2  2  0  0  0
  2  3  1  0  0  0
  3  4  1  0  0  0
  4  5  1  0  0  0
  5  6  1  0  0  0
  6  7  1  0  0  0
  7  8  1  0  0  0
  8  9  1  0  0  0
  9 10  1  0  0  0
 10 11  2  0  0  0
 11 12  1  0  0  0
 12 13  1  0  0  0
 13 14  1  0  0  0
 14 15  1  0  0  0
 15 16  1  0  0  0
 16 17  1  0  0  0
 17 18  1  0  0  0
 18 19  1  0  0  0
 23 24  1  0  0  0
 29 30  1  0  0  0
M  CHG 1  28  -1
M  END
> <minimizedAffinity>
-8.16622

> <CNNscore>
0.7694494724

> <CNNaffinity>
6.9760236740

> <CNN_VS>
5.3676977158

> <CNNaffinity_variance>
0.1139364094

$$$$



 37 36  0  0  0  0  0  0  0  0999 V2000
  -42.0149   59.6716   66.9086 O   0  0  0  0  0  0  0  0  0  0  0  0
  -42.2173   59.1975   65.8182 C   0  0  0  0  0  0  0  0  0  0  0  0
  -43.5034   58.5746   65.3692 C   0  0  0  0  0  0  0  0  0  0  0  0
  -44.2296   57.8296   66.4829 C   0  0  0  0  0  0  0  0  0  0  0  0
  -45.4962   58.5128   66.9693 C   0  0  0  0  0  0  0  0  0  0  0  0
  -46.6993   57.5878   67.0229 C   0  0  0  0  0  0  0  0  0  0  0  0
  -47.5110   57.5971   65.7390 C   0  0  0  0  0  0  0  0  0  0  0  0
  -47.3826   58.9052   64.9905 C   0  0  0  0  0  0  0  0  0  0  0  0
  -48.4347   59.9397   65.3352 C   0  0  0  0  0  0  0  0  0  0  0  0
  -49.6677   59.3723   65.9266 C   0  0  0  0  0  0  0  0  0  0  0  0
  -50.8889   59.5070   65.4519 C   0  0  0  0  0  0  0  0  0  0  0  0
  -51.2990   60.2183   64.2035 C   0  0  0  0  0  0  0  0  0  0  0  0
  -51.5266   59.2118   63.0745 C   0  0  0  0  0  0  0  0  0  0  0  0
  -50.2770   58.5068   62.5676 C   0  0  0  0  0  0  0  0  0  0  0  0
  -49.6597   59.1126   61.3129 C   0  0  0  0  0  0  0  0  0  0  0  0
  -49.9437   58.3114   60.0466 C   0  0  0  0  0  0  0  0  0  0  0  0
  -48.6938   57.9352   59.2668 C   0  0  0  0  0  0  0  0  0  0  0  0
  -48.2950   56.4690   59.3431 C   0  0  0  0  0  0  0  0  0  0  0  0
  -47.1099   56.1453   58.4863 C   0  0  0  0  0  0  0  0  0  0  0  0
  -41.3156   59.1687   64.8324 O   0  0  0  0  0  0  0  0  0  0  0  0
  -40.2195   58.2349   64.9485 C   0  0  0  0  0  0  0  0  0  0  0  0
  -39.7995   57.6950   63.5978 C   0  0  0  0  0  0  0  0  0  0  0  0
  -40.9347   57.5071   62.7421 O   0  0  0  0  0  0  0  0  0  0  0  0
  -41.3567   58.3638   62.5719 H   0  0  0  0  0  0  0  0  0  0  0  0
  -38.7904   58.5818   62.9067 C   0  0  0  0  0  0  0  0  0  0  0  0
  -38.6565   59.8627   63.5692 O   0  0  0  0  0  0  0  0  0  0  0  0
  -37.3824   60.6594   64.1328 P   0  0  0  0  0  0  0  0  0  0  0  0
  -37.8256   61.4684   65.3507 O   0  0  0  0  0  0  0  0  0  0  0  0
  -36.9113   61.5977   63.0907 O   0  0  0  0  0  0  0  0  0  0  0  0
  -37.6354   62.1923   62.8398 H   0  0  0  0  0  0  0  0  0  0  0  0
  -36.1823   59.6309   64.5879 O   0  0  0  0  0  0  0  0  0  0  0  0
  -35.2665   58.9406   63.6947 C   0  0  0  0  0  0  0  0  0  0  0  0
  -34.0223   59.7672   63.4829 C   0  0  0  0  0  0  0  0  0  0  0  0
  -32.9220   59.1337   62.6519 N   0  0  0  0  0  0  0  0  0  0  0  0
  -32.0836   60.1874   62.0022 C   0  0  0  0  0  0  0  0  0  0  0  0
  -33.5501   58.2906   61.5913 C   0  0  0  0  0  0  0  0  0  0  0  0
  -32.0400   58.2750   63.5129 C   0  0  0  0  0  0  0  0  0  0  0  0
 34 33  1  0  0  0
 34 35  1  0  0  0
 34 36  1  0  0  0
 34 37  1  0  0  0
 22 23  1  0  0  0
 22 25  1  0  0  0
 22 21  1  0  0  0
 27 26  1  0  0  0
 27 28  2  0  0  0
 27 31  1  0  0  0
 27 29  1  0  0  0
 25 26  1  0  0  0
 32 33  1  0  0  0
 32 31  1  0  0  0
 20 21  1  0  0  0
 20  2  1  0  0  0
  1  2  2  0  0  0
  2  3  1  0  0  0
  3  4  1  0  0  0
  4  5  1  0  0  0
  5  6  1  0  0  0
  6  7  1  0  0  0
  7  8  1  0  0  0
  8  9  1  0  0  0
  9 10  1  0  0  0
 10 11  2  0  0  0
 11 12  1  0  0  0
 12 13  1  0  0  0
 13 14  1  0  0  0
 14 15  1  0  0  0
 15 16  1  0  0  0
 16 17  1  0  0  0
 17 18  1  0  0  0
 18 19  1  0  0  0
 23 24  1  0  0  0
 29 30  1  0  0  0
M  CHG 1  28  -1
M  END
> <minimizedAffinity>
-7.39469

> <CNNscore>
0.7611944079

> <CNNaffinity>
6.6471610069

> <CNN_VS>
5.0597815514

> <CNNaffinity_variance>
0.0738838091

$$$$



 37 36  0  0  0  0  0  0  0  0999 V2000
  -40.9562   61.4489   63.1098 O   0  0  0  0  0  0  0  0  0  0  0  0
  -40.9492   60.3520   62.6083 C   0  0  0  0  0  0  0  0  0  0  0  0
  -41.5703   59.1244   63.2008 C   0  0  0  0  0  0  0  0  0  0  0  0
  -43.0919   59.1897   63.2567 C   0  0  0  0  0  0  0  0  0  0  0  0
  -43.7041   58.4866   64.4560 C   0  0  0  0  0  0  0  0  0  0  0  0
  -45.2220   58.5273   64.4705 C   0  0  0  0  0  0  0  0  0  0  0  0
  -45.8057   58.3526   65.8620 C   0  0  0  0  0  0  0  0  0  0  0  0
  -47.2758   57.9992   65.8255 C   0  0  0  0  0  0  0  0  0  0  0  0
  -48.2022   59.1649   65.5448 C   0  0  0  0  0  0  0  0  0  0  0  0
  -49.5987   58.9452   65.9849 C   0  0  0  0  0  0  0  0  0  0  0  0
  -50.6837   59.2374   65.2977 C   0  0  0  0  0  0  0  0  0  0  0  0
  -50.7526   59.8112   63.9198 C   0  0  0  0  0  0  0  0  0  0  0  0
  -50.8533   58.6883   62.8861 C   0  0  0  0  0  0  0  0  0  0  0  0
  -49.9915   58.8656   61.6446 C   0  0  0  0  0  0  0  0  0  0  0  0
  -49.8650   57.6270   60.7659 C   0  0  0  0  0  0  0  0  0  0  0  0
  -48.8752   57.7934   59.6175 C   0  0  0  0  0  0  0  0  0  0  0  0
  -48.1354   56.5150   59.2568 C   0  0  0  0  0  0  0  0  0  0  0  0
  -47.2406   56.6043   58.0297 C   0  0  0  0  0  0  0  0  0  0  0  0
  -47.2472   57.9658   57.4053 C   0  0  0  0  0  0  0  0  0  0  0  0
  -40.3896   60.0689   61.4284 O   0  0  0  0  0  0  0  0  0  0  0  0
  -39.8190   58.7537   61.2513 C   0  0  0  0  0  0  0  0  0  0  0  0
  -38.4432   58.8210   60.6228 C   0  0  0  0  0  0  0  0  0  0  0  0
  -38.1992   60.1145   60.0538 O   0  0  0  0  0  0  0  0  0  0  0  0
  -38.2092   60.7837   60.7560 H   0  0  0  0  0  0  0  0  0  0  0  0
  -37.3415   58.4862   61.6008 C   0  0  0  0  0  0  0  0  0  0  0  0
  -37.5993   59.0421   62.9130 O   0  0  0  0  0  0  0  0  0  0  0  0
  -37.2082   60.4448   63.5878 P   0  0  0  0  0  0  0  0  0  0  0  0
  -38.1707   60.7022   64.7461 O   0  0  0  0  0  0  0  0  0  0  0  0
  -37.3817   61.5179   62.5845 O   0  0  0  0  0  0  0  0  0  0  0  0
  -38.2945   61.5094   62.2565 H   0  0  0  0  0  0  0  0  0  0  0  0
  -35.6705   60.4242   64.1710 O   0  0  0  0  0  0  0  0  0  0  0  0
  -34.6928   61.4913   64.0357 C   0  0  0  0  0  0  0  0  0  0  0  0
  -34.3120   62.0249   65.3945 C   0  0  0  0  0  0  0  0  0  0  0  0
  -34.8573   63.3925   65.7620 N   0  0  0  0  0  0  0  0  0  0  0  0
  -35.7922   63.2888   66.9240 C   0  0  0  0  0  0  0  0  0  0  0  0
  -35.6004   63.9412   64.5885 C   0  0  0  0  0  0  0  0  0  0  0  0
  -33.7373   64.3264   66.1227 C   0  0  0  0  0  0  0  0  0  0  0  0
 34 33  1  0  0  0
 34 35  1  0  0  0
 34 36  1  0  0  0
 34 37  1  0  0  0
 22 23  1  0  0  0
 22 25  1  0  0  0
 22 21  1  0  0  0
 27 26  1  0  0  0
 27 28  2  0  0  0
 27 31  1  0  0  0
 27 29  1  0  0  0
 25 26  1  0  0  0
 32 33  1  0  0  0
 32 31  1  0  0  0
 20 21  1  0  0  0
 20  2  1  0  0  0
  1  2  2  0  0  0
  2  3  1  0  0  0
  3  4  1  0  0  0
  4  5  1  0  0  0
  5  6  1  0  0  0
  6  7  1  0  0  0
  7  8  1  0  0  0
  8  9  1  0  0  0
  9 10  1  0  0  0
 10 11  2  0  0  0
 11 12  1  0  0  0
 12 13  1  0  0  0
 13 14  1  0  0  0
 14 15  1  0  0  0
 15 16  1  0  0  0
 16 17  1  0  0  0
 17 18  1  0  0  0
 18 19  1  0  0  0
 23 24  1  0  0  0
 29 30  1  0  0  0
M  CHG 1  28  -1
M  END
> <minimizedAffinity>
-7.85327

> <CNNscore>
0.7415611148

> <CNNaffinity>
6.7753081322

> <CNN_VS>
5.0243048668

> <CNNaffinity_variance>
0.6250107288

$$$$



 37 36  0  0  0  0  0  0  0  0999 V2000
  -41.8647   59.9548   64.2549 O   0  0  0  0  0  0  0  0  0  0  0  0
  -41.4471   60.1234   65.3738 C   0  0  0  0  0  0  0  0  0  0  0  0
  -42.1302   59.6774   66.6301 C   0  0  0  0  0  0  0  0  0  0  0  0
  -42.8825   58.3619   66.4688 C   0  0  0  0  0  0  0  0  0  0  0  0
  -44.3922   58.4873   66.5811 C   0  0  0  0  0  0  0  0  0  0  0  0
  -45.1233   58.1607   65.2908 C   0  0  0  0  0  0  0  0  0  0  0  0
  -46.6321   58.2819   65.4184 C   0  0  0  0  0  0  0  0  0  0  0  0
  -47.1751   59.4788   64.6699 C   0  0  0  0  0  0  0  0  0  0  0  0
  -48.4129   60.1024   65.2822 C   0  0  0  0  0  0  0  0  0  0  0  0
  -49.4454   59.1215   65.6869 C   0  0  0  0  0  0  0  0  0  0  0  0
  -50.6615   59.0258   65.1902 C   0  0  0  0  0  0  0  0  0  0  0  0
  -51.2554   59.8464   64.0918 C   0  0  0  0  0  0  0  0  0  0  0  0
  -51.0140   59.1714   62.7406 C   0  0  0  0  0  0  0  0  0  0  0  0
  -49.8003   59.6704   61.9701 C   0  0  0  0  0  0  0  0  0  0  0  0
  -49.7118   59.1905   60.5265 C   0  0  0  0  0  0  0  0  0  0  0  0
  -48.9964   57.8524   60.3722 C   0  0  0  0  0  0  0  0  0  0  0  0
  -48.8509   57.3987   58.9283 C   0  0  0  0  0  0  0  0  0  0  0  0
  -47.4209   57.1995   58.4490 C   0  0  0  0  0  0  0  0  0  0  0  0
  -47.1041   57.9985   57.2223 C   0  0  0  0  0  0  0  0  0  0  0  0
  -40.2917   60.7301   65.6610 O   0  0  0  0  0  0  0  0  0  0  0  0
  -39.1006   59.9154   65.7267 C   0  0  0  0  0  0  0  0  0  0  0  0
  -38.0301   60.4123   64.7783 C   0  0  0  0  0  0  0  0  0  0  0  0
  -38.6005   61.2000   63.7244 O   0  0  0  0  0  0  0  0  0  0  0  0
  -39.0170   61.9909   64.1011 H   0  0  0  0  0  0  0  0  0  0  0  0
  -36.9588   61.2129   65.4808 C   0  0  0  0  0  0  0  0  0  0  0  0
  -36.5393   62.3558   64.6964 O   0  0  0  0  0  0  0  0  0  0  0  0
  -35.4856   63.5327   64.9800 P   0  0  0  0  0  0  0  0  0  0  0  0
  -35.3525   63.6999   66.4928 O   0  0  0  0  0  0  0  0  0  0  0  0
  -36.0169   64.7912   64.4124 O   0  0  0  0  0  0  0  0  0  0  0  0
  -36.8880   64.9769   64.7967 H   0  0  0  0  0  0  0  0  0  0  0  0
  -34.0064   63.1801   64.3534 O   0  0  0  0  0  0  0  0  0  0  0  0
  -33.0602   64.1399   63.8089 C   0  0  0  0  0  0  0  0  0  0  0  0
  -31.7965   63.4383   63.3763 C   0  0  0  0  0  0  0  0  0  0  0  0
  -31.4297   63.5485   61.9080 N   0  0  0  0  0  0  0  0  0  0  0  0
  -30.2791   64.4853   61.7243 C   0  0  0  0  0  0  0  0  0  0  0  0
  -32.6095   64.0760   61.1595 C   0  0  0  0  0  0  0  0  0  0  0  0
  -31.0520   62.2029   61.3572 C   0  0  0  0  0  0  0  0  0  0  0  0
 34 33  1  0  0  0
 34 35  1  0  0  0
 34 36  1  0  0  0
 34 37  1  0  0  0
 22 23  1  0  0  0
 22 25  1  0  0  0
 22 21  1  0  0  0
 27 26  1  0  0  0
 27 28  2  0  0  0
 27 31  1  0  0  0
 27 29  1  0  0  0
 25 26  1  0  0  0
 32 33  1  0  0  0
 32 31  1  0  0  0
 20 21  1  0  0  0
 20  2  1  0  0  0
  1  2  2  0  0  0
  2  3  1  0  0  0
  3  4  1  0  0  0
  4  5  1  0  0  0
  5  6  1  0  0  0
  6  7  1  0  0  0
  7  8  1  0  0  0
  8  9  1  0  0  0
  9 10  1  0  0  0
 10 11  2  0  0  0
 11 12  1  0  0  0
 12 13  1  0  0  0
 13 14  1  0  0  0
 14 15  1  0  0  0
 15 16  1  0  0  0
 16 17  1  0  0  0
 17 18  1  0  0  0
 18 19  1  0  0  0
 23 24  1  0  0  0
 29 30  1  0  0  0
M  CHG 1  28  -1
M  END
> <minimizedAffinity>
-8.01216

> <CNNscore>
0.7391617894

> <CNNaffinity>
6.1463041306

> <CNN_VS>
4.5431132317

> <CNNaffinity_variance>
0.1602631509

$$$$



 37 36  0  0  0  0  0  0  0  0999 V2000
  -44.0004   59.1291   67.1422 O   0  0  0  0  0  0  0  0  0  0  0  0
  -43.7928   58.6855   66.0400 C   0  0  0  0  0  0  0  0  0  0  0  0
  -44.7673   57.8875   65.2292 C   0  0  0  0  0  0  0  0  0  0  0  0
  -45.8251   58.7470   64.5472 C   0  0  0  0  0  0  0  0  0  0  0  0
  -47.0606   59.0053   65.3923 C   0  0  0  0  0  0  0  0  0  0  0  0
  -47.7705   57.7358   65.8289 C   0  0  0  0  0  0  0  0  0  0  0  0
  -49.2838   57.8649   65.8030 C   0  0  0  0  0  0  0  0  0  0  0  0
  -49.7365   59.3056   65.8866 C   0  0  0  0  0  0  0  0  0  0  0  0
  -50.7863   59.7013   64.8681 C   0  0  0  0  0  0  0  0  0  0  0  0
  -50.2350   60.0590   63.5414 C   0  0  0  0  0  0  0  0  0  0  0  0
  -50.3858   59.3720   62.4278 C   0  0  0  0  0  0  0  0  0  0  0  0
  -51.1708   58.1143   62.2420 C   0  0  0  0  0  0  0  0  0  0  0  0
  -50.6716   57.3593   61.0090 C   0  0  0  0  0  0  0  0  0  0  0  0
  -50.1770   58.2329   59.8655 C   0  0  0  0  0  0  0  0  0  0  0  0
  -48.6618   58.3063   59.7197 C   0  0  0  0  0  0  0  0  0  0  0  0
  -47.9956   56.9407   59.5880 C   0  0  0  0  0  0  0  0  0  0  0  0
  -48.2554   56.2587   58.2541 C   0  0  0  0  0  0  0  0  0  0  0  0
  -47.1550   56.4179   57.2158 C   0  0  0  0  0  0  0  0  0  0  0  0
  -46.9109   57.8483   56.8445 C   0  0  0  0  0  0  0  0  0  0  0  0
  -42.6516   58.8532   65.3654 O   0  0  0  0  0  0  0  0  0  0  0  0
  -41.4476   59.0940   66.1265 C   0  0  0  0  0  0  0  0  0  0  0  0
  -40.5940   60.1738   65.4960 C   0  0  0  0  0  0  0  0  0  0  0  0
  -40.7540   61.4233   66.1812 O   0  0  0  0  0  0  0  0  0  0  0  0
  -40.4439   61.3325   67.0958 H   0  0  0  0  0  0  0  0  0  0  0  0
  -39.1291   59.8061   65.4566 C   0  0  0  0  0  0  0  0  0  0  0  0
  -38.2949   60.8607   65.9945 O   0  0  0  0  0  0  0  0  0  0  0  0
  -37.0406   61.6598   65.3911 P   0  0  0  0  0  0  0  0  0  0  0  0
  -36.8297   62.9201   66.2285 O   0  0  0  0  0  0  0  0  0  0  0  0
  -37.3593   62.0643   64.0043 O   0  0  0  0  0  0  0  0  0  0  0  0
  -38.1704   62.5961   64.0009 H   0  0  0  0  0  0  0  0  0  0  0  0
  -35.6688   60.7539   65.4418 O   0  0  0  0  0  0  0  0  0  0  0  0
  -35.0491   60.0808   64.3123 C   0  0  0  0  0  0  0  0  0  0  0  0
  -36.1063   59.4803   63.4191 C   0  0  0  0  0  0  0  0  0  0  0  0
  -36.1243   57.9666   63.3144 N   0  0  0  0  0  0  0  0  0  0  0  0
  -36.3427   57.3511   64.6593 C   0  0  0  0  0  0  0  0  0  0  0  0
  -34.8070   57.5094   62.7794 C   0  0  0  0  0  0  0  0  0  0  0  0
  -37.2200   57.5156   62.3911 C   0  0  0  0  0  0  0  0  0  0  0  0
 34 33  1  0  0  0
 34 35  1  0  0  0
 34 36  1  0  0  0
 34 37  1  0  0  0
 22 23  1  0  0  0
 22 25  1  0  0  0
 22 21  1  0  0  0
 27 26  1  0  0  0
 27 28  2  0  0  0
 27 31  1  0  0  0
 27 29  1  0  0  0
 25 26  1  0  0  0
 32 33  1  0  0  0
 32 31  1  0  0  0
 20 21  1  0  0  0
 20  2  1  0  0  0
  1  2  2  0  0  0
  2  3  1  0  0  0
  3  4  1  0  0  0
  4  5  1  0  0  0
  5  6  1  0  0  0
  6  7  1  0  0  0
  7  8  1  0  0  0
  8  9  1  0  0  0
  9 10  1  0  0  0
 10 11  2  0  0  0
 11 12  1  0  0  0
 12 13  1  0  0  0
 13 14  1  0  0  0
 14 15  1  0  0  0
 15 16  1  0  0  0
 16 17  1  0  0  0
 17 18  1  0  0  0
 18 19  1  0  0  0
 23 24  1  0  0  0
 29 30  1  0  0  0
M  CHG 1  28  -1
M  END
> <minimizedAffinity>
-7.81367

> <CNNscore>
0.7241516113

> <CNNaffinity>
6.6498794556

> <CNN_VS>
4.8155207634

> <CNNaffinity_variance>
0.0828399211

$$$$



 37 36  0  0  0  0  0  0  0  0999 V2000
  -42.9588   56.0910   64.7997 O   0  0  0  0  0  0  0  0  0  0  0  0
  -42.5550   56.9997   65.4822 C   0  0  0  0  0  0  0  0  0  0  0  0
  -43.3448   57.7053   66.5415 C   0  0  0  0  0  0  0  0  0  0  0  0
  -44.7556   58.0693   66.0948 C   0  0  0  0  0  0  0  0  0  0  0  0
  -45.5799   58.7866   67.1501 C   0  0  0  0  0  0  0  0  0  0  0  0
  -46.9339   58.1454   67.3983 C   0  0  0  0  0  0  0  0  0  0  0  0
  -47.3710   57.2289   66.2685 C   0  0  0  0  0  0  0  0  0  0  0  0
  -48.6099   57.7377   65.5659 C   0  0  0  0  0  0  0  0  0  0  0  0
  -48.9401   59.1919   65.8346 C   0  0  0  0  0  0  0  0  0  0  0  0
  -48.7713   60.0760   64.6590 C   0  0  0  0  0  0  0  0  0  0  0  0
  -49.6392   60.2421   63.6823 C   0  0  0  0  0  0  0  0  0  0  0  0
  -50.9908   59.6170   63.5593 C   0  0  0  0  0  0  0  0  0  0  0  0
  -50.9731   58.5318   62.4816 C   0  0  0  0  0  0  0  0  0  0  0  0
  -49.9417   58.7242   61.3794 C   0  0  0  0  0  0  0  0  0  0  0  0
  -50.1530   57.8608   60.1416 C   0  0  0  0  0  0  0  0  0  0  0  0
  -49.2368   56.6428   60.0848 C   0  0  0  0  0  0  0  0  0  0  0  0
  -47.9673   56.8685   59.2791 C   0  0  0  0  0  0  0  0  0  0  0  0
  -48.1492   57.6359   57.9781 C   0  0  0  0  0  0  0  0  0  0  0  0
  -46.8553   57.8836   57.2654 C   0  0  0  0  0  0  0  0  0  0  0  0
  -41.3225   57.5098   65.4014 O   0  0  0  0  0  0  0  0  0  0  0  0
  -41.1525   58.9125   65.7020 C   0  0  0  0  0  0  0  0  0  0  0  0
  -39.9713   59.5038   64.9621 C   0  0  0  0  0  0  0  0  0  0  0  0
  -40.2412   60.8517   64.5538 O   0  0  0  0  0  0  0  0  0  0  0  0
  -40.3747   61.4065   65.3382 H   0  0  0  0  0  0  0  0  0  0  0  0
  -38.7001   59.4706   65.7777 C   0  0  0  0  0  0  0  0  0  0  0  0
  -38.0428   60.7608   65.8027 O   0  0  0  0  0  0  0  0  0  0  0  0
  -36.8576   61.3867   64.9198 P   0  0  0  0  0  0  0  0  0  0  0  0
  -35.5875   60.5802   65.1852 O   0  0  0  0  0  0  0  0  0  0  0  0
  -36.6286   62.7819   65.3548 O   0  0  0  0  0  0  0  0  0  0  0  0
  -36.4272   62.7958   66.3036 H   0  0  0  0  0  0  0  0  0  0  0  0
  -37.2031   61.3179   63.3132 O   0  0  0  0  0  0  0  0  0  0  0  0
  -37.3981   60.1065   62.5339 C   0  0  0  0  0  0  0  0  0  0  0  0
  -38.5863   60.2617   61.6173 C   0  0  0  0  0  0  0  0  0  0  0  0
  -38.9706   59.0455   60.7952 N   0  0  0  0  0  0  0  0  0  0  0  0
  -38.5463   57.7901   61.4872 C   0  0  0  0  0  0  0  0  0  0  0  0
  -38.2826   59.1269   59.4721 C   0  0  0  0  0  0  0  0  0  0  0  0
  -40.4568   59.0027   60.5813 C   0  0  0  0  0  0  0  0  0  0  0  0
 34 33  1  0  0  0
 34 35  1  0  0  0
 34 36  1  0  0  0
 34 37  1  0  0  0
 22 23  1  0  0  0
 22 25  1  0  0  0
 22 21  1  0  0  0
 27 26  1  0  0  0
 27 28  2  0  0  0
 27 31  1  0  0  0
 27 29  1  0  0  0
 25 26  1  0  0  0
 32 33  1  0  0  0
 32 31  1  0  0  0
 20 21  1  0  0  0
 20  2  1  0  0  0
  1  2  2  0  0  0
  2  3  1  0  0  0
  3  4  1  0  0  0
  4  5  1  0  0  0
  5  6  1  0  0  0
  6  7  1  0  0  0
  7  8  1  0  0  0
  8  9  1  0  0  0
  9 10  1  0  0  0
 10 11  2  0  0  0
 11 12  1  0  0  0
 12 13  1  0  0  0
 13 14  1  0  0  0
 14 15  1  0  0  0
 15 16  1  0  0  0
 16 17  1  0  0  0
 17 18  1  0  0  0
 18 19  1  0  0  0
 23 24  1  0  0  0
 29 30  1  0  0  0
M  CHG 1  28  -1
M  END
> <minimizedAffinity>
-7.81688

> <CNNscore>
0.7209564447

> <CNNaffinity>
6.8957738876

> <CNN_VS>
4.9715528488

> <CNNaffinity_variance>
0.1404668391

$$$$



 37 36  0  0  0  0  0  0  0  0999 V2000
  -42.4293   56.6249   65.4969 O   0  0  0  0  0  0  0  0  0  0  0  0
  -42.8003   57.7153   65.1391 C   0  0  0  0  0  0  0  0  0  0  0  0
  -43.7406   57.9814   64.0038 C   0  0  0  0  0  0  0  0  0  0  0  0
  -45.1103   58.4682   64.4615 C   0  0  0  0  0  0  0  0  0  0  0  0
  -45.5801   57.8680   65.7755 C   0  0  0  0  0  0  0  0  0  0  0  0
  -46.7747   58.5879   66.3759 C   0  0  0  0  0  0  0  0  0  0  0  0
  -47.6824   59.2060   65.3262 C   0  0  0  0  0  0  0  0  0  0  0  0
  -49.0077   59.6486   65.9050 C   0  0  0  0  0  0  0  0  0  0  0  0
  -50.2114   58.8845   65.3919 C   0  0  0  0  0  0  0  0  0  0  0  0
  -51.1725   59.7140   64.6300 C   0  0  0  0  0  0  0  0  0  0  0  0
  -51.4561   59.5938   63.3494 C   0  0  0  0  0  0  0  0  0  0  0  0
  -50.9117   58.5811   62.3951 C   0  0  0  0  0  0  0  0  0  0  0  0
  -49.5522   59.0368   61.8626 C   0  0  0  0  0  0  0  0  0  0  0  0
  -49.3379   58.8406   60.3690 C   0  0  0  0  0  0  0  0  0  0  0  0
  -49.8852   57.5346   59.8057 C   0  0  0  0  0  0  0  0  0  0  0  0
  -48.8953   56.3767   59.8804 C   0  0  0  0  0  0  0  0  0  0  0  0
  -47.5729   56.6557   59.1839 C   0  0  0  0  0  0  0  0  0  0  0  0
  -47.5809   56.4728   57.6736 C   0  0  0  0  0  0  0  0  0  0  0  0
  -47.4378   57.7664   56.9323 C   0  0  0  0  0  0  0  0  0  0  0  0
  -42.4318   58.8617   65.7183 O   0  0  0  0  0  0  0  0  0  0  0  0
  -41.1403   58.9061   66.3640 C   0  0  0  0  0  0  0  0  0  0  0  0
  -40.1429   59.7174   65.5645 C   0  0  0  0  0  0  0  0  0  0  0  0
  -40.1386   61.0884   65.9851 O   0  0  0  0  0  0  0  0  0  0  0  0
  -39.8517   61.1419   66.9102 H   0  0  0  0  0  0  0  0  0  0  0  0
  -38.7410   59.1610   65.6501 C   0  0  0  0  0  0  0  0  0  0  0  0
  -38.1147   59.0772   64.3470 O   0  0  0  0  0  0  0  0  0  0  0  0
  -37.5730   60.1986   63.3346 P   0  0  0  0  0  0  0  0  0  0  0  0
  -36.2572   60.7446   63.8865 O   0  0  0  0  0  0  0  0  0  0  0  0
  -38.5555   61.3033   63.2816 O   0  0  0  0  0  0  0  0  0  0  0  0
  -38.6979   61.6525   64.1752 H   0  0  0  0  0  0  0  0  0  0  0  0
  -37.3020   59.5766   61.8364 O   0  0  0  0  0  0  0  0  0  0  0  0
  -38.3191   59.2629   60.8464 C   0  0  0  0  0  0  0  0  0  0  0  0
  -39.0188   57.9760   61.2074 C   0  0  0  0  0  0  0  0  0  0  0  0
  -40.5358   57.9978   61.1744 N   0  0  0  0  0  0  0  0  0  0  0  0
  -41.0281   58.0667   59.7644 C   0  0  0  0  0  0  0  0  0  0  0  0
  -41.0120   59.2045   61.9143 C   0  0  0  0  0  0  0  0  0  0  0  0
  -41.0944   56.7636   61.8233 C   0  0  0  0  0  0  0  0  0  0  0  0
 34 33  1  0  0  0
 34 35  1  0  0  0
 34 36  1  0  0  0
 34 37  1  0  0  0
 22 23  1  0  0  0
 22 25  1  0  0  0
 22 21  1  0  0  0
 27 26  1  0  0  0
 27 28  2  0  0  0
 27 31  1  0  0  0
 27 29  1  0  0  0
 25 26  1  0  0  0
 32 33  1  0  0  0
 32 31  1  0  0  0
 20 21  1  0  0  0
 20  2  1  0  0  0
  1  2  2  0  0  0
  2  3  1  0  0  0
  3  4  1  0  0  0
  4  5  1  0  0  0
  5  6  1  0  0  0
  6  7  1  0  0  0
  7  8  1  0  0  0
  8  9  1  0  0  0
  9 10  1  0  0  0
 10 11  2  0  0  0
 11 12  1  0  0  0
 12 13  1  0  0  0
 13 14  1  0  0  0
 14 15  1  0  0  0
 15 16  1  0  0  0
 16 17  1  0  0  0
 17 18  1  0  0  0
 18 19  1  0  0  0
 23 24  1  0  0  0
 29 30  1  0  0  0
M  CHG 1  28  -1
M  END
> <minimizedAffinity>
-8.10149

> <CNNscore>
0.7171024084

> <CNNaffinity>
7.0864953995

> <CNN_VS>
5.0817427635

> <CNNaffinity_variance>
0.2645039260

$$$$
