


 21 20  0  0  0  0  0  0  0  0999 V2000
  -50.2744   60.0352   61.9927 C   0  0  0  0  0  0  0  0  0  0  0  0
  -51.2401   59.7329   63.1116 C   0  0  0  0  0  0  0  0  0  0  0  0
  -51.0608   60.3668   64.4250 C   0  0  0  0  0  0  0  0  0  0  0  0
  -49.9454   59.9179   65.3424 C   0  0  0  0  0  0  0  0  0  0  0  0
  -49.8470   58.3928   65.3483 C   0  0  0  0  0  0  0  0  0  0  0  0
  -48.4264   57.8827   65.5750 C   0  0  0  0  0  0  0  0  0  0  0  0
  -47.3953   58.7393   64.8353 C   0  0  0  0  0  0  0  0  0  0  0  0
  -45.9702   58.6615   65.3961 C   0  0  0  0  0  0  0  0  0  0  0  0
  -45.2049   59.9795   65.2178 C   0  0  0  0  0  0  0  0  0  0  0  0
  -43.7378   59.7634   64.8379 C   0  0  0  0  0  0  0  0  0  0  0  0
  -43.1364   60.9289   64.0433 C   0  0  0  0  0  0  0  0  0  0  0  0
  -49.4793   58.7687   61.7193 C   0  0  0  0  0  0  0  0  0  0  0  0
  -50.2734   57.7704   60.8959 C   0  0  0  0  0  0  0  0  0  0  0  0
  -49.6612   57.5900   59.5101 C   0  0  0  0  0  0  0  0  0  0  0  0
  -48.2124   58.0575   59.5116 C   0  0  0  0  0  0  0  0  0  0  0  0
  -47.3214   57.0708   58.7738 C   0  0  0  0  0  0  0  0  0  0  0  0
  -47.0281   57.5489   57.3554 C   0  0  0  0  0  0  0  0  0  0  0  0
  -47.5919   56.5580   56.3558 C   0  0  0  0  0  0  0  0  0  0  0  0
  -47.3238   55.3338   56.4609 O   0  0  0  0  0  0  0  0  0  0  0  0
  -48.3265   56.9525   55.4134 O   0  0  0  0  0  0  0  0  0  0  0  0
  -48.5308   57.8629   55.3283 H   0  0  0  0  0  0  0  0  0  0  0  0
 18 19  2  0  0  0
 18 17  1  0  0  0
 18 20  1  0  0  0
 17 16  1  0  0  0
 16 15  1  0  0  0
 15 14  1  0  0  0
 14 13  1  0  0  0
 13 12  1  0  0  0
 12  1  1  0  0  0
  1  2  1  0  0  0
  2  3  1  0  0  0
  3  4  1  0  0  0
  4  5  1  0  0  0
  5  6  1  0  0  0
  6  7  1  0  0  0
  7  8  1  0  0  0
  8  9  1  0  0  0
  9 10  1  0  0  0
 10 11  1  0  0  0
 20 21  1  0  0  0
M  END
> <minimizedAffinity>
-7.51136

$$$$



 21 20  0  0  0  0  0  0  0  0999 V2000
  -50.4139   58.2686   62.6380 C   0  0  0  0  0  0  0  0  0  0  0  0
  -51.1474   59.5158   63.0649 C   0  0  0  0  0  0  0  0  0  0  0  0
  -50.4388   60.5613   63.8159 C   0  0  0  0  0  0  0  0  0  0  0  0
  -49.0615   61.0111   63.3820 C   0  0  0  0  0  0  0  0  0  0  0  0
  -48.1275   61.0930   64.5888 C   0  0  0  0  0  0  0  0  0  0  0  0
  -48.4413   60.0558   65.6637 C   0  0  0  0  0  0  0  0  0  0  0  0
  -47.1650   59.5064   66.3066 C   0  0  0  0  0  0  0  0  0  0  0  0
  -45.8591   59.9979   65.6706 C   0  0  0  0  0  0  0  0  0  0  0  0
  -44.6539   59.1465   66.0913 C   0  0  0  0  0  0  0  0  0  0  0  0
  -44.9165   57.6443   65.9564 C   0  0  0  0  0  0  0  0  0  0  0  0
  -44.0895   56.9784   64.8500 C   0  0  0  0  0  0  0  0  0  0  0  0
  -51.1096   57.7298   61.3984 C   0  0  0  0  0  0  0  0  0  0  0  0
  -50.1611   56.9335   60.5200 C   0  0  0  0  0  0  0  0  0  0  0  0
  -49.6857   57.7628   59.3308 C   0  0  0  0  0  0  0  0  0  0  0  0
  -48.2583   58.2396   59.5608 C   0  0  0  0  0  0  0  0  0  0  0  0
  -47.2974   57.5672   58.5930 C   0  0  0  0  0  0  0  0  0  0  0  0
  -47.8039   56.1876   58.1848 C   0  0  0  0  0  0  0  0  0  0  0  0
  -47.7298   56.0420   56.6773 C   0  0  0  0  0  0  0  0  0  0  0  0
  -48.1752   56.9524   55.9328 O   0  0  0  0  0  0  0  0  0  0  0  0
  -47.2278   55.0101   56.1614 O   0  0  0  0  0  0  0  0  0  0  0  0
  -46.8938   54.3273   56.7093 H   0  0  0  0  0  0  0  0  0  0  0  0
 18 19  2  0  0  0
 18 17  1  0  0  0
 18 20  1  0  0  0
 17 16  1  0  0  0
 16 15  1  0  0  0
 15 14  1  0  0  0
 14 13  1  0  0  0
 13 12  1  0  0  0
 12  1  1  0  0  0
  1  2  1  0  0  0
  2  3  1  0  0  0
  3  4  1  0  0  0
  4  5  1  0  0  0
  5  6  1  0  0  0
  6  7  1  0  0  0
  7  8  1  0  0  0
  8  9  1  0  0  0
  9 10  1  0  0  0
 10 11  1  0  0  0
 20 21  1  0  0  0
M  END
> <minimizedAffinity>
-7.39416

$$$$



 21 20  0  0  0  0  0  0  0  0999 V2000
  -50.4714   60.5905   63.5295 C   0  0  0  0  0  0  0  0  0  0  0  0
  -51.2139   59.3742   63.0345 C   0  0  0  0  0  0  0  0  0  0  0  0
  -50.4863   58.3062   62.3352 C   0  0  0  0  0  0  0  0  0  0  0  0
  -51.1593   57.5216   61.2311 C   0  0  0  0  0  0  0  0  0  0  0  0
  -50.1769   57.2678   60.0884 C   0  0  0  0  0  0  0  0  0  0  0  0
  -48.7205   57.4918   60.4865 C   0  0  0  0  0  0  0  0  0  0  0  0
  -47.9583   58.2779   59.4163 C   0  0  0  0  0  0  0  0  0  0  0  0
  -46.9711   57.4480   58.5867 C   0  0  0  0  0  0  0  0  0  0  0  0
  -47.0060   57.8235   57.0993 C   0  0  0  0  0  0  0  0  0  0  0  0
  -47.7447   56.7887   56.2466 C   0  0  0  0  0  0  0  0  0  0  0  0
  -47.7389   55.3814   56.8559 C   0  0  0  0  0  0  0  0  0  0  0  0
  -49.0099   60.2025   63.6862 C   0  0  0  0  0  0  0  0  0  0  0  0
  -48.2269   61.2513   64.4557 C   0  0  0  0  0  0  0  0  0  0  0  0
  -47.3557   60.6084   65.5306 C   0  0  0  0  0  0  0  0  0  0  0  0
  -45.8931   60.6411   65.1096 C   0  0  0  0  0  0  0  0  0  0  0  0
  -45.1102   59.5197   65.7742 C   0  0  0  0  0  0  0  0  0  0  0  0
  -44.3293   58.7093   64.7448 C   0  0  0  0  0  0  0  0  0  0  0  0
  -43.7965   57.4441   65.3886 C   0  0  0  0  0  0  0  0  0  0  0  0
  -43.8664   56.3473   64.7772 O   0  0  0  0  0  0  0  0  0  0  0  0
  -43.2862   57.4810   66.5381 O   0  0  0  0  0  0  0  0  0  0  0  0
  -43.2305   58.2943   67.0001 H   0  0  0  0  0  0  0  0  0  0  0  0
 18 19  2  0  0  0
 18 17  1  0  0  0
 18 20  1  0  0  0
 17 16  1  0  0  0
 16 15  1  0  0  0
 15 14  1  0  0  0
 14 13  1  0  0  0
 13 12  1  0  0  0
 12  1  1  0  0  0
  1  2  1  0  0  0
  2  3  1  0  0  0
  3  4  1  0  0  0
  4  5  1  0  0  0
  5  6  1  0  0  0
  6  7  1  0  0  0
  7  8  1  0  0  0
  8  9  1  0  0  0
  9 10  1  0  0  0
 10 11  1  0  0  0
 20 21  1  0  0  0
M  END
> <minimizedAffinity>
-7.27965

$$$$



 21 20  0  0  0  0  0  0  0  0999 V2000
  -51.4102   59.9147   63.0744 C   0  0  0  0  0  0  0  0  0  0  0  0
  -50.8143   60.0538   64.4533 C   0  0  0  0  0  0  0  0  0  0  0  0
  -49.5055   60.6996   64.6238 C   0  0  0  0  0  0  0  0  0  0  0  0
  -48.2586   59.8614   64.7973 C   0  0  0  0  0  0  0  0  0  0  0  0
  -47.0411   60.7614   65.0048 C   0  0  0  0  0  0  0  0  0  0  0  0
  -45.7607   59.9832   65.2962 C   0  0  0  0  0  0  0  0  0  0  0  0
  -46.0629   58.5837   65.8386 C   0  0  0  0  0  0  0  0  0  0  0  0
  -45.2845   57.4481   65.1635 C   0  0  0  0  0  0  0  0  0  0  0  0
  -43.8607   57.8711   64.7783 C   0  0  0  0  0  0  0  0  0  0  0  0
  -42.8296   57.5218   65.8546 C   0  0  0  0  0  0  0  0  0  0  0  0
  -42.2333   58.7522   66.5490 C   0  0  0  0  0  0  0  0  0  0  0  0
  -50.7173   58.7464   62.3918 C   0  0  0  0  0  0  0  0  0  0  0  0
  -49.7545   59.2126   61.3142 C   0  0  0  0  0  0  0  0  0  0  0  0
  -48.8539   58.0717   60.8504 C   0  0  0  0  0  0  0  0  0  0  0  0
  -48.1499   58.4523   59.5554 C   0  0  0  0  0  0  0  0  0  0  0  0
  -47.3422   57.2844   59.0115 C   0  0  0  0  0  0  0  0  0  0  0  0
  -47.0348   57.4714   57.5293 C   0  0  0  0  0  0  0  0  0  0  0  0
  -47.7495   56.4057   56.7214 C   0  0  0  0  0  0  0  0  0  0  0  0
  -47.7796   55.2172   57.1314 O   0  0  0  0  0  0  0  0  0  0  0  0
  -48.3123   56.7007   55.6354 O   0  0  0  0  0  0  0  0  0  0  0  0
  -48.2943   57.5840   55.3232 H   0  0  0  0  0  0  0  0  0  0  0  0
 18 19  2  0  0  0
 18 17  1  0  0  0
 18 20  1  0  0  0
 17 16  1  0  0  0
 16 15  1  0  0  0
 15 14  1  0  0  0
 14 13  1  0  0  0
 13 12  1  0  0  0
 12  1  1  0  0  0
  1  2  1  0  0  0
  2  3  1  0  0  0
  3  4  1  0  0  0
  4  5  1  0  0  0
  5  6  1  0  0  0
  6  7  1  0  0  0
  7  8  1  0  0  0
  8  9  1  0  0  0
  9 10  1  0  0  0
 10 11  1  0  0  0
 20 21  1  0  0  0
M  END
> <minimizedAffinity>
-7.24841

$$$$



 21 20  0  0  0  0  0  0  0  0999 V2000
  -50.1431   59.2420   65.3844 C   0  0  0  0  0  0  0  0  0  0  0  0
  -50.9774   60.2686   64.6593 C   0  0  0  0  0  0  0  0  0  0  0  0
  -51.4582   59.9928   63.2985 C   0  0  0  0  0  0  0  0  0  0  0  0
  -50.6395   59.1350   62.3597 C   0  0  0  0  0  0  0  0  0  0  0  0
  -49.6941   60.0077   61.5350 C   0  0  0  0  0  0  0  0  0  0  0  0
  -48.9005   59.2195   60.4964 C   0  0  0  0  0  0  0  0  0  0  0  0
  -49.7659   58.1573   59.8130 C   0  0  0  0  0  0  0  0  0  0  0  0
  -48.9853   57.0972   59.0265 C   0  0  0  0  0  0  0  0  0  0  0  0
  -47.7293   57.6770   58.3626 C   0  0  0  0  0  0  0  0  0  0  0  0
  -47.5732   57.2329   56.9059 C   0  0  0  0  0  0  0  0  0  0  0  0
  -47.7557   55.7234   56.7066 C   0  0  0  0  0  0  0  0  0  0  0  0
  -48.9130   59.9517   65.9267 C   0  0  0  0  0  0  0  0  0  0  0  0
  -47.8067   60.0353   64.8901 C   0  0  0  0  0  0  0  0  0  0  0  0
  -47.5433   58.6729   64.2558 C   0  0  0  0  0  0  0  0  0  0  0  0
  -46.7026   57.8132   65.1893 C   0  0  0  0  0  0  0  0  0  0  0  0
  -45.2569   57.7557   64.7217 C   0  0  0  0  0  0  0  0  0  0  0  0
  -44.3283   58.4384   65.7207 C   0  0  0  0  0  0  0  0  0  0  0  0
  -43.6444   59.6184   65.0580 C   0  0  0  0  0  0  0  0  0  0  0  0
  -44.3041   60.6493   64.7690 O   0  0  0  0  0  0  0  0  0  0  0  0
  -42.4162   59.5733   64.7887 O   0  0  0  0  0  0  0  0  0  0  0  0
  -41.9178   58.8087   65.0008 H   0  0  0  0  0  0  0  0  0  0  0  0
 18 19  2  0  0  0
 18 17  1  0  0  0
 18 20  1  0  0  0
 17 16  1  0  0  0
 16 15  1  0  0  0
 15 14  1  0  0  0
 14 13  1  0  0  0
 13 12  1  0  0  0
 12  1  1  0  0  0
  1  2  1  0  0  0
  2  3  1  0  0  0
  3  4  1  0  0  0
  4  5  1  0  0  0
  5  6  1  0  0  0
  6  7  1  0  0  0
  7  8  1  0  0  0
  8  9  1  0  0  0
  9 10  1  0  0  0
 10 11  1  0  0  0
 20 21  1  0  0  0
M  END
> <minimizedAffinity>
-7.13306

$$$$



 21 20  0  0  0  0  0  0  0  0999 V2000
  -48.2410   59.8708   63.8552 C   0  0  0  0  0  0  0  0  0  0  0  0
  -49.2689   60.4488   62.9143 C   0  0  0  0  0  0  0  0  0  0  0  0
  -49.9348   59.5802   61.9340 C   0  0  0  0  0  0  0  0  0  0  0  0
  -50.7597   58.4001   62.3970 C   0  0  0  0  0  0  0  0  0  0  0  0
  -51.2024   57.5615   61.1986 C   0  0  0  0  0  0  0  0  0  0  0  0
  -50.1808   57.5470   60.0646 C   0  0  0  0  0  0  0  0  0  0  0  0
  -49.3027   56.2938   60.1131 C   0  0  0  0  0  0  0  0  0  0  0  0
  -48.0626   56.3396   59.2123 C   0  0  0  0  0  0  0  0  0  0  0  0
  -47.6021   57.7765   58.9335 C   0  0  0  0  0  0  0  0  0  0  0  0
  -47.0427   57.9532   57.5195 C   0  0  0  0  0  0  0  0  0  0  0  0
  -47.6579   56.9905   56.4965 C   0  0  0  0  0  0  0  0  0  0  0  0
  -48.1118   60.8229   65.0332 C   0  0  0  0  0  0  0  0  0  0  0  0
  -46.9636   60.4360   65.9482 C   0  0  0  0  0  0  0  0  0  0  0  0
  -45.8490   59.7439   65.1696 C   0  0  0  0  0  0  0  0  0  0  0  0
  -44.5711   59.7151   65.9964 C   0  0  0  0  0  0  0  0  0  0  0  0
  -43.3958   60.2612   65.2009 C   0  0  0  0  0  0  0  0  0  0  0  0
  -42.1639   60.4280   66.0846 C   0  0  0  0  0  0  0  0  0  0  0  0
  -41.2269   61.4478   65.4671 C   0  0  0  0  0  0  0  0  0  0  0  0
  -41.4129   61.8427   64.2876 O   0  0  0  0  0  0  0  0  0  0  0  0
  -40.2563   61.9019   66.1265 O   0  0  0  0  0  0  0  0  0  0  0  0
  -40.1111   61.6126   67.0058 H   0  0  0  0  0  0  0  0  0  0  0  0
 18 19  2  0  0  0
 18 17  1  0  0  0
 18 20  1  0  0  0
 17 16  1  0  0  0
 16 15  1  0  0  0
 15 14  1  0  0  0
 14 13  1  0  0  0
 13 12  1  0  0  0
 12  1  1  0  0  0
  1  2  1  0  0  0
  2  3  1  0  0  0
  3  4  1  0  0  0
  4  5  1  0  0  0
  5  6  1  0  0  0
  6  7  1  0  0  0
  7  8  1  0  0  0
  8  9  1  0  0  0
  9 10  1  0  0  0
 10 11  1  0  0  0
 20 21  1  0  0  0
M  END
> <minimizedAffinity>
-6.97314

$$$$



 21 20  0  0  0  0  0  0  0  0999 V2000
  -46.2263   58.5093   64.9916 C   0  0  0  0  0  0  0  0  0  0  0  0
  -47.6864   58.2401   65.2590 C   0  0  0  0  0  0  0  0  0  0  0  0
  -48.6332   58.1584   64.1383 C   0  0  0  0  0  0  0  0  0  0  0  0
  -50.0392   58.6956   64.2873 C   0  0  0  0  0  0  0  0  0  0  0  0
  -50.5612   59.1919   62.9395 C   0  0  0  0  0  0  0  0  0  0  0  0
  -49.7645   60.3687   62.3825 C   0  0  0  0  0  0  0  0  0  0  0  0
  -49.3882   60.1501   60.9146 C   0  0  0  0  0  0  0  0  0  0  0  0
  -49.5112   58.7019   60.4257 C   0  0  0  0  0  0  0  0  0  0  0  0
  -48.1581   58.1184   59.9978 C   0  0  0  0  0  0  0  0  0  0  0  0
  -48.1683   57.5987   58.5578 C   0  0  0  0  0  0  0  0  0  0  0  0
  -46.9798   58.0921   57.7238 C   0  0  0  0  0  0  0  0  0  0  0  0
  -45.4466   57.2792   65.4272 C   0  0  0  0  0  0  0  0  0  0  0  0
  -44.0340   57.2800   64.8705 C   0  0  0  0  0  0  0  0  0  0  0  0
  -43.0049   57.4619   65.9822 C   0  0  0  0  0  0  0  0  0  0  0  0
  -41.9070   58.4147   65.5300 C   0  0  0  0  0  0  0  0  0  0  0  0
  -42.4963   59.7159   65.0089 C   0  0  0  0  0  0  0  0  0  0  0  0
  -41.4594   60.5142   64.2254 C   0  0  0  0  0  0  0  0  0  0  0  0
  -40.4869   61.1697   65.1866 C   0  0  0  0  0  0  0  0  0  0  0  0
  -40.8653   62.1221   65.9155 O   0  0  0  0  0  0  0  0  0  0  0  0
  -39.2961   60.7699   65.2586 O   0  0  0  0  0  0  0  0  0  0  0  0
  -39.0064   60.0609   64.7188 H   0  0  0  0  0  0  0  0  0  0  0  0
 18 19  2  0  0  0
 18 17  1  0  0  0
 18 20  1  0  0  0
 17 16  1  0  0  0
 16 15  1  0  0  0
 15 14  1  0  0  0
 14 13  1  0  0  0
 13 12  1  0  0  0
 12  1  1  0  0  0
  1  2  1  0  0  0
  2  3  1  0  0  0
  3  4  1  0  0  0
  4  5  1  0  0  0
  5  6  1  0  0  0
  6  7  1  0  0  0
  7  8  1  0  0  0
  8  9  1  0  0  0
  9 10  1  0  0  0
 10 11  1  0  0  0
 20 21  1  0  0  0
M  END
> <minimizedAffinity>
-6.84078

$$$$



 21 20  0  0  0  0  0  0  0  0999 V2000
  -45.9930   60.0399   65.4197 C   0  0  0  0  0  0  0  0  0  0  0  0
  -46.1560   58.8879   66.3800 C   0  0  0  0  0  0  0  0  0  0  0  0
  -45.6550   57.5552   66.0167 C   0  0  0  0  0  0  0  0  0  0  0  0
  -44.8018   57.3719   64.7815 C   0  0  0  0  0  0  0  0  0  0  0  0
  -43.3985   56.9096   65.1719 C   0  0  0  0  0  0  0  0  0  0  0  0
  -42.6643   57.9052   66.0660 C   0  0  0  0  0  0  0  0  0  0  0  0
  -41.8151   58.8798   65.2456 C   0  0  0  0  0  0  0  0  0  0  0  0
  -42.3185   60.3282   65.2409 C   0  0  0  0  0  0  0  0  0  0  0  0
  -42.7550   60.7850   63.8426 C   0  0  0  0  0  0  0  0  0  0  0  0
  -41.6118   61.4171   63.0445 C   0  0  0  0  0  0  0  0  0  0  0  0
  -41.9562   61.6517   61.5687 C   0  0  0  0  0  0  0  0  0  0  0  0
  -47.3186   60.7820   65.3654 C   0  0  0  0  0  0  0  0  0  0  0  0
  -48.3289   60.2047   66.3407 C   0  0  0  0  0  0  0  0  0  0  0  0
  -49.6515   59.8974   65.6449 C   0  0  0  0  0  0  0  0  0  0  0  0
  -49.7279   58.4183   65.2929 C   0  0  0  0  0  0  0  0  0  0  0  0
  -49.1969   58.1644   63.8909 C   0  0  0  0  0  0  0  0  0  0  0  0
  -50.1926   58.6296   62.8333 C   0  0  0  0  0  0  0  0  0  0  0  0
  -49.4455   59.2216   61.6541 C   0  0  0  0  0  0  0  0  0  0  0  0
  -48.6653   58.5043   60.9769 O   0  0  0  0  0  0  0  0  0  0  0  0
  -49.5964   60.4326   61.3478 O   0  0  0  0  0  0  0  0  0  0  0  0
  -50.1759   60.9735   61.8474 H   0  0  0  0  0  0  0  0  0  0  0  0
 18 19  2  0  0  0
 18 17  1  0  0  0
 18 20  1  0  0  0
 17 16  1  0  0  0
 16 15  1  0  0  0
 15 14  1  0  0  0
 14 13  1  0  0  0
 13 12  1  0  0  0
 12  1  1  0  0  0
  1  2  1  0  0  0
  2  3  1  0  0  0
  3  4  1  0  0  0
  4  5  1  0  0  0
  5  6  1  0  0  0
  6  7  1  0  0  0
  7  8  1  0  0  0
  8  9  1  0  0  0
  9 10  1  0  0  0
 10 11  1  0  0  0
 20 21  1  0  0  0
M  END
> <minimizedAffinity>
-6.71765

$$$$



 21 20  0  0  0  0  0  0  0  0999 V2000
  -49.1089   60.0486   65.4281 C   0  0  0  0  0  0  0  0  0  0  0  0
  -47.8343   60.6150   64.8533 C   0  0  0  0  0  0  0  0  0  0  0  0
  -46.5411   60.2723   65.4610 C   0  0  0  0  0  0  0  0  0  0  0  0
  -46.4647   59.2295   66.5538 C   0  0  0  0  0  0  0  0  0  0  0  0
  -46.3360   57.8338   65.9449 C   0  0  0  0  0  0  0  0  0  0  0  0
  -44.9320   57.2489   66.0730 C   0  0  0  0  0  0  0  0  0  0  0  0
  -44.1154   57.4586   64.7950 C   0  0  0  0  0  0  0  0  0  0  0  0
  -43.2671   58.7358   64.7734 C   0  0  0  0  0  0  0  0  0  0  0  0
  -41.9236   58.5507   65.4912 C   0  0  0  0  0  0  0  0  0  0  0  0
  -41.9681   59.0033   66.9530 C   0  0  0  0  0  0  0  0  0  0  0  0
  -42.7664   60.2952   67.1665 C   0  0  0  0  0  0  0  0  0  0  0  0
  -49.6022   58.9718   64.4753 C   0  0  0  0  0  0  0  0  0  0  0  0
  -50.7797   59.4497   63.6444 C   0  0  0  0  0  0  0  0  0  0  0  0
  -50.6636   58.9720   62.2000 C   0  0  0  0  0  0  0  0  0  0  0  0
  -49.7044   59.8664   61.4271 C   0  0  0  0  0  0  0  0  0  0  0  0
  -48.8564   59.0508   60.4637 C   0  0  0  0  0  0  0  0  0  0  0  0
  -49.1507   57.5604   60.5988 C   0  0  0  0  0  0  0  0  0  0  0  0
  -48.7938   56.8504   59.3074 C   0  0  0  0  0  0  0  0  0  0  0  0
  -48.2680   55.7084   59.3396 O   0  0  0  0  0  0  0  0  0  0  0  0
  -49.0160   57.3989   58.1970 O   0  0  0  0  0  0  0  0  0  0  0  0
  -49.4074   58.2496   58.1647 H   0  0  0  0  0  0  0  0  0  0  0  0
 18 19  2  0  0  0
 18 17  1  0  0  0
 18 20  1  0  0  0
 17 16  1  0  0  0
 16 15  1  0  0  0
 15 14  1  0  0  0
 14 13  1  0  0  0
 13 12  1  0  0  0
 12  1  1  0  0  0
  1  2  1  0  0  0
  2  3  1  0  0  0
  3  4  1  0  0  0
  4  5  1  0  0  0
  5  6  1  0  0  0
  6  7  1  0  0  0
  7  8  1  0  0  0
  8  9  1  0  0  0
  9 10  1  0  0  0
 10 11  1  0  0  0
 20 21  1  0  0  0
M  END
> <minimizedAffinity>
-6.67399

$$$$
