


 17 16  0  0  0  0  0  0  0  0999 V2000
  -49.9944   58.7434   61.2523 C   0  0  0  0  0  0  0  0  0  0  0  0
  -50.9698   57.7780   61.8635 C   0  0  0  0  0  0  0  0  0  0  0  0
  -49.6636   59.8551   61.9241 C   0  0  0  0  0  0  0  0  0  0  0  0
  -49.3818   58.4696   59.8949 C   0  0  0  0  0  0  0  0  0  0  0  0
  -48.0866   57.6768   60.0369 C   0  0  0  0  0  0  0  0  0  0  0  0
  -46.3804   58.0363   57.7634 C   0  0  0  0  0  0  0  0  0  0  0  0
  -47.1938   56.7859   57.9032 C   0  0  0  0  0  0  0  0  0  0  0  0
  -47.1119   55.7262   56.8461 C   0  0  0  0  0  0  0  0  0  0  0  0
  -47.9952   56.6151   58.9652 C   0  0  0  0  0  0  0  0  0  0  0  0
  -50.2672   60.1311   63.2820 C   0  0  0  0  0  0  0  0  0  0  0  0
  -49.1744   60.1798   64.3429 C   0  0  0  0  0  0  0  0  0  0  0  0
  -49.1601   58.8890   65.1328 C   0  0  0  0  0  0  0  0  0  0  0  0
  -50.3916   58.4523   65.8637 C   0  0  0  0  0  0  0  0  0  0  0  0
  -48.0557   58.1291   65.1737 C   0  0  0  0  0  0  0  0  0  0  0  0
  -46.7413   56.6564   66.5647 O   0  0  0  0  0  0  0  0  0  0  0  0
  -48.0239   56.8344   65.9534 C   0  0  0  0  0  0  0  0  0  0  0  0
  -46.7328   55.8234   67.0616 H   0  0  0  0  0  0  0  0  0  0  0  0
  6  7  1  0  0  0
 15 16  1  0  0  0
  7  8  1  0  0  0
  7  9  2  0  0  0
  9  5  1  0  0  0
  5  4  1  0  0  0
  4  1  1  0  0  0
  1  2  1  0  0  0
  1  3  2  0  0  0
  3 10  1  0  0  0
 10 11  1  0  0  0
 11 12  1  0  0  0
 12 13  1  0  0  0
 12 14  2  0  0  0
 14 16  1  0  0  0
 15 17  1  0  0  0
M  END
> <minimizedAffinity>
-8.29235

> <CNNscore>
0.8117656112

> <CNNaffinity>
6.3445792198

> <CNN_VS>
5.1503109932

> <CNNaffinity_variance>
0.2141636312

$$$$



 17 16  0  0  0  0  0  0  0  0999 V2000
  -50.0759   58.7372   61.6457 C   0  0  0  0  0  0  0  0  0  0  0  0
  -49.6442   60.0976   61.1767 C   0  0  0  0  0  0  0  0  0  0  0  0
  -50.8503   58.6342   62.7349 C   0  0  0  0  0  0  0  0  0  0  0  0
  -49.6506   57.4902   60.8995 C   0  0  0  0  0  0  0  0  0  0  0  0
  -48.3814   57.7490   60.0944 C   0  0  0  0  0  0  0  0  0  0  0  0
  -46.6382   58.1832   57.8624 C   0  0  0  0  0  0  0  0  0  0  0  0
  -47.3762   56.8866   57.9993 C   0  0  0  0  0  0  0  0  0  0  0  0
  -47.1995   55.8198   56.9611 C   0  0  0  0  0  0  0  0  0  0  0  0
  -48.1947   56.6807   59.0418 C   0  0  0  0  0  0  0  0  0  0  0  0
  -51.2828   59.8756   63.4806 C   0  0  0  0  0  0  0  0  0  0  0  0
  -51.0289   59.7070   64.9737 C   0  0  0  0  0  0  0  0  0  0  0  0
  -49.5448   59.5678   65.2353 C   0  0  0  0  0  0  0  0  0  0  0  0
  -48.5939   60.5784   64.6730 C   0  0  0  0  0  0  0  0  0  0  0  0
  -49.0772   58.5519   65.9756 C   0  0  0  0  0  0  0  0  0  0  0  0
  -47.2643   59.0050   67.5051 O   0  0  0  0  0  0  0  0  0  0  0  0
  -47.5988   58.3991   66.2515 C   0  0  0  0  0  0  0  0  0  0  0  0
  -46.3143   58.9008   67.6713 H   0  0  0  0  0  0  0  0  0  0  0  0
  6  7  1  0  0  0
 15 16  1  0  0  0
  7  8  1  0  0  0
  7  9  2  0  0  0
  9  5  1  0  0  0
  5  4  1  0  0  0
  4  1  1  0  0  0
  1  2  1  0  0  0
  1  3  2  0  0  0
  3 10  1  0  0  0
 10 11  1  0  0  0
 11 12  1  0  0  0
 12 13  1  0  0  0
 12 14  2  0  0  0
 14 16  1  0  0  0
 15 17  1  0  0  0
M  END
> <minimizedAffinity>
-8.52535

> <CNNscore>
0.7713074088

> <CNNaffinity>
6.2413210869

> <CNN_VS>
4.8139772415

> <CNNaffinity_variance>
0.3832882047

$$$$



 17 16  0  0  0  0  0  0  0  0999 V2000
  -50.4319   58.4276   62.4209 C   0  0  0  0  0  0  0  0  0  0  0  0
  -51.4195   59.3878   63.0207 C   0  0  0  0  0  0  0  0  0  0  0  0
  -49.3080   58.1384   63.0916 C   0  0  0  0  0  0  0  0  0  0  0  0
  -50.6969   57.7838   61.0763 C   0  0  0  0  0  0  0  0  0  0  0  0
  -49.4608   57.0406   60.5804 C   0  0  0  0  0  0  0  0  0  0  0  0
  -47.5790   55.9533   58.7134 C   0  0  0  0  0  0  0  0  0  0  0  0
  -47.7213   57.4375   58.8600 C   0  0  0  0  0  0  0  0  0  0  0  0
  -46.8721   58.3495   58.0267 C   0  0  0  0  0  0  0  0  0  0  0  0
  -48.5998   57.9500   59.7344 C   0  0  0  0  0  0  0  0  0  0  0  0
  -49.0405   58.7733   64.4369 C   0  0  0  0  0  0  0  0  0  0  0  0
  -47.6631   59.4250   64.4459 C   0  0  0  0  0  0  0  0  0  0  0  0
  -46.7406   58.6757   65.3829 C   0  0  0  0  0  0  0  0  0  0  0  0
  -47.1532   58.4449   66.8035 C   0  0  0  0  0  0  0  0  0  0  0  0
  -45.5616   58.2083   64.9466 C   0  0  0  0  0  0  0  0  0  0  0  0
  -44.0305   56.3544   65.1706 O   0  0  0  0  0  0  0  0  0  0  0  0
  -44.6292   57.4535   65.8664 C   0  0  0  0  0  0  0  0  0  0  0  0
  -43.4349   55.8781   65.7701 H   0  0  0  0  0  0  0  0  0  0  0  0
  6  7  1  0  0  0
 15 16  1  0  0  0
  7  8  1  0  0  0
  7  9  2  0  0  0
  9  5  1  0  0  0
  5  4  1  0  0  0
  4  1  1  0  0  0
  1  2  1  0  0  0
  1  3  2  0  0  0
  3 10  1  0  0  0
 10 11  1  0  0  0
 11 12  1  0  0  0
 12 13  1  0  0  0
 12 14  2  0  0  0
 14 16  1  0  0  0
 15 17  1  0  0  0
M  END
> <minimizedAffinity>
-8.36677

> <CNNscore>
0.7670227289

> <CNNaffinity>
6.3059334755

> <CNN_VS>
4.8367943764

> <CNNaffinity_variance>
0.1122479439

$$$$



 17 16  0  0  0  0  0  0  0  0999 V2000
  -46.4070   58.3915   65.7187 C   0  0  0  0  0  0  0  0  0  0  0  0
  -46.7809   58.5839   67.1609 C   0  0  0  0  0  0  0  0  0  0  0  0
  -45.2027   57.8876   65.4150 C   0  0  0  0  0  0  0  0  0  0  0  0
  -47.3755   58.7546   64.6129 C   0  0  0  0  0  0  0  0  0  0  0  0
  -48.6958   58.0107   64.7855 C   0  0  0  0  0  0  0  0  0  0  0  0
  -50.6797   59.8306   65.7661 C   0  0  0  0  0  0  0  0  0  0  0  0
  -50.6739   59.4306   64.3223 C   0  0  0  0  0  0  0  0  0  0  0  0
  -51.7130   59.9856   63.3952 C   0  0  0  0  0  0  0  0  0  0  0  0
  -49.7479   58.5773   63.8602 C   0  0  0  0  0  0  0  0  0  0  0  0
  -44.2338   57.5178   66.5145 C   0  0  0  0  0  0  0  0  0  0  0  0
  -42.8166   57.4352   65.9604 C   0  0  0  0  0  0  0  0  0  0  0  0
  -42.0466   58.6887   66.3156 C   0  0  0  0  0  0  0  0  0  0  0  0
  -42.3412   59.4024   67.5983 C   0  0  0  0  0  0  0  0  0  0  0  0
  -41.0955   59.1580   65.4946 C   0  0  0  0  0  0  0  0  0  0  0  0
  -40.7454   61.4992   65.0178 O   0  0  0  0  0  0  0  0  0  0  0  0
  -40.3127   60.4057   65.8348 C   0  0  0  0  0  0  0  0  0  0  0  0
  -40.2367   62.2934   65.2447 H   0  0  0  0  0  0  0  0  0  0  0  0
  6  7  1  0  0  0
 15 16  1  0  0  0
  7  8  1  0  0  0
  7  9  2  0  0  0
  9  5  1  0  0  0
  5  4  1  0  0  0
  4  1  1  0  0  0
  1  2  1  0  0  0
  1  3  2  0  0  0
  3 10  1  0  0  0
 10 11  1  0  0  0
 11 12  1  0  0  0
 12 13  1  0  0  0
 12 14  2  0  0  0
 14 16  1  0  0  0
 15 17  1  0  0  0
M  END
> <minimizedAffinity>
-7.66533

> <CNNscore>
0.7444286346

> <CNNaffinity>
6.0083465576

> <CNN_VS>
4.4727849960

> <CNNaffinity_variance>
0.1534301937

$$$$



 17 16  0  0  0  0  0  0  0  0999 V2000
  -46.1906   57.9443   65.8046 C   0  0  0  0  0  0  0  0  0  0  0  0
  -46.8374   57.2685   66.9802 C   0  0  0  0  0  0  0  0  0  0  0  0
  -46.9565   58.3733   64.7917 C   0  0  0  0  0  0  0  0  0  0  0  0
  -44.6910   58.1484   65.7577 C   0  0  0  0  0  0  0  0  0  0  0  0
  -43.9981   56.9269   65.1626 C   0  0  0  0  0  0  0  0  0  0  0  0
  -41.5017   55.7905   64.3346 C   0  0  0  0  0  0  0  0  0  0  0  0
  -42.2425   56.7224   63.4250 C   0  0  0  0  0  0  0  0  0  0  0  0
  -41.6690   57.0586   62.0813 C   0  0  0  0  0  0  0  0  0  0  0  0
  -43.4104   57.2579   63.8101 C   0  0  0  0  0  0  0  0  0  0  0  0
  -48.4546   58.1777   64.8352 C   0  0  0  0  0  0  0  0  0  0  0  0
  -49.1622   59.4165   64.2996 C   0  0  0  0  0  0  0  0  0  0  0  0
  -50.1895   59.0193   63.2617 C   0  0  0  0  0  0  0  0  0  0  0  0
  -51.5162   59.7122   63.2274 C   0  0  0  0  0  0  0  0  0  0  0  0
  -49.9155   58.0588   62.3666 C   0  0  0  0  0  0  0  0  0  0  0  0
  -50.3541   57.7551   60.0115 O   0  0  0  0  0  0  0  0  0  0  0  0
  -50.9272   57.6518   61.3197 C   0  0  0  0  0  0  0  0  0  0  0  0
  -51.0116   57.4918   59.3487 H   0  0  0  0  0  0  0  0  0  0  0  0
  6  7  1  0  0  0
 15 16  1  0  0  0
  7  8  1  0  0  0
  7  9  2  0  0  0
  9  5  1  0  0  0
  5  4  1  0  0  0
  4  1  1  0  0  0
  1  2  1  0  0  0
  1  3  2  0  0  0
  3 10  1  0  0  0
 10 11  1  0  0  0
 11 12  1  0  0  0
 12 13  1  0  0  0
 12 14  2  0  0  0
 14 16  1  0  0  0
 15 17  1  0  0  0
M  END
> <minimizedAffinity>
-7.12289

> <CNNscore>
0.7297352552

> <CNNaffinity>
6.4099030495

> <CNN_VS>
4.6775321960

> <CNNaffinity_variance>
0.4132127762

$$$$



 17 16  0  0  0  0  0  0  0  0999 V2000
  -50.6326   58.9473   63.8405 C   0  0  0  0  0  0  0  0  0  0  0  0
  -51.6677   59.9099   63.3315 C   0  0  0  0  0  0  0  0  0  0  0  0
  -49.9676   58.1773   62.9679 C   0  0  0  0  0  0  0  0  0  0  0  0
  -50.3326   58.8447   65.3211 C   0  0  0  0  0  0  0  0  0  0  0  0
  -49.1830   59.7708   65.7045 C   0  0  0  0  0  0  0  0  0  0  0  0
  -46.6930   58.6970   64.7792 C   0  0  0  0  0  0  0  0  0  0  0  0
  -47.0737   58.5769   66.2233 C   0  0  0  0  0  0  0  0  0  0  0  0
  -46.1462   57.8898   67.1798 C   0  0  0  0  0  0  0  0  0  0  0  0
  -48.2395   59.0766   66.6596 C   0  0  0  0  0  0  0  0  0  0  0  0
  -50.2585   58.2792   61.4882 C   0  0  0  0  0  0  0  0  0  0  0  0
  -50.0861   56.9188   60.8237 C   0  0  0  0  0  0  0  0  0  0  0  0
  -48.9213   56.9567   59.8582 C   0  0  0  0  0  0  0  0  0  0  0  0
  -48.3020   58.2700   59.4933 C   0  0  0  0  0  0  0  0  0  0  0  0
  -48.4338   55.8215   59.3360 C   0  0  0  0  0  0  0  0  0  0  0  0
  -47.5748   55.0622   57.2107 O   0  0  0  0  0  0  0  0  0  0  0  0
  -47.2681   55.8391   58.3738 C   0  0  0  0  0  0  0  0  0  0  0  0
  -46.8205   55.0808   56.6013 H   0  0  0  0  0  0  0  0  0  0  0  0
  6  7  1  0  0  0
 15 16  1  0  0  0
  7  8  1  0  0  0
  7  9  2  0  0  0
  9  5  1  0  0  0
  5  4  1  0  0  0
  4  1  1  0  0  0
  1  2  1  0  0  0
  1  3  2  0  0  0
  3 10  1  0  0  0
 10 11  1  0  0  0
 11 12  1  0  0  0
 12 13  1  0  0  0
 12 14  2  0  0  0
 14 16  1  0  0  0
 15 17  1  0  0  0
M  END
> <minimizedAffinity>
-8.12020

> <CNNscore>
0.7216814756

> <CNNaffinity>
6.3108620644

> <CNN_VS>
4.5544323921

> <CNNaffinity_variance>
0.2199963629

$$$$



 17 16  0  0  0  0  0  0  0  0999 V2000
  -46.8885   58.8004   65.8171 C   0  0  0  0  0  0  0  0  0  0  0  0
  -46.6218   58.4353   67.2497 C   0  0  0  0  0  0  0  0  0  0  0  0
  -46.0533   58.3658   64.8631 C   0  0  0  0  0  0  0  0  0  0  0  0
  -48.0886   59.6450   65.4441 C   0  0  0  0  0  0  0  0  0  0  0  0
  -49.3743   58.8308   65.5446 C   0  0  0  0  0  0  0  0  0  0  0  0
  -51.3943   59.9773   63.8669 C   0  0  0  0  0  0  0  0  0  0  0  0
  -50.6579   58.7494   63.4257 C   0  0  0  0  0  0  0  0  0  0  0  0
  -50.9857   58.1232   62.1037 C   0  0  0  0  0  0  0  0  0  0  0  0
  -49.7131   58.2088   64.2094 C   0  0  0  0  0  0  0  0  0  0  0  0
  -44.8570   57.5175   65.2284 C   0  0  0  0  0  0  0  0  0  0  0  0
  -43.6203   58.0039   64.4826 C   0  0  0  0  0  0  0  0  0  0  0  0
  -42.6296   58.6041   65.4565 C   0  0  0  0  0  0  0  0  0  0  0  0
  -42.7720   58.3331   66.9220 C   0  0  0  0  0  0  0  0  0  0  0  0
  -41.6195   59.3680   65.0147 C   0  0  0  0  0  0  0  0  0  0  0  0
  -40.9531   61.3376   66.2427 O   0  0  0  0  0  0  0  0  0  0  0  0
  -40.6175   59.9722   65.9719 C   0  0  0  0  0  0  0  0  0  0  0  0
  -40.3040   61.7144   66.8572 H   0  0  0  0  0  0  0  0  0  0  0  0
  6  7  1  0  0  0
 15 16  1  0  0  0
  7  8  1  0  0  0
  7  9  2  0  0  0
  9  5  1  0  0  0
  5  4  1  0  0  0
  4  1  1  0  0  0
  1  2  1  0  0  0
  1  3  2  0  0  0
  3 10  1  0  0  0
 10 11  1  0  0  0
 11 12  1  0  0  0
 12 13  1  0  0  0
 12 14  2  0  0  0
 14 16  1  0  0  0
 15 17  1  0  0  0
M  END
> <minimizedAffinity>
-7.44650

> <CNNscore>
0.7081556320

> <CNNaffinity>
6.0292234421

> <CNN_VS>
4.2696285248

> <CNNaffinity_variance>
0.1434783787

$$$$



 17 16  0  0  0  0  0  0  0  0999 V2000
  -50.5860   58.9436   63.8072 C   0  0  0  0  0  0  0  0  0  0  0  0
  -51.6542   59.9193   63.4023 C   0  0  0  0  0  0  0  0  0  0  0  0
  -49.8342   58.3642   62.8608 C   0  0  0  0  0  0  0  0  0  0  0  0
  -50.3498   58.6158   65.2664 C   0  0  0  0  0  0  0  0  0  0  0  0
  -49.3272   59.5696   65.8754 C   0  0  0  0  0  0  0  0  0  0  0  0
  -46.7553   58.9131   64.7965 C   0  0  0  0  0  0  0  0  0  0  0  0
  -47.1125   58.5026   66.1924 C   0  0  0  0  0  0  0  0  0  0  0  0
  -46.1183   57.7447   67.0196 C   0  0  0  0  0  0  0  0  0  0  0  0
  -48.3163   58.8064   66.7000 C   0  0  0  0  0  0  0  0  0  0  0  0
  -50.0613   58.6916   61.4029 C   0  0  0  0  0  0  0  0  0  0  0  0
  -50.1923   57.4091   60.5904 C   0  0  0  0  0  0  0  0  0  0  0  0
  -48.9223   57.1596   59.8060 C   0  0  0  0  0  0  0  0  0  0  0  0
  -48.4592   55.7555   59.5701 C   0  0  0  0  0  0  0  0  0  0  0  0
  -48.2153   58.1868   59.3121 C   0  0  0  0  0  0  0  0  0  0  0  0
  -47.2417   57.8879   57.1226 O   0  0  0  0  0  0  0  0  0  0  0  0
  -46.9471   57.9571   58.5222 C   0  0  0  0  0  0  0  0  0  0  0  0
  -46.4213   57.7405   56.6265 H   0  0  0  0  0  0  0  0  0  0  0  0
  6  7  1  0  0  0
 15 16  1  0  0  0
  7  8  1  0  0  0
  7  9  2  0  0  0
  9  5  1  0  0  0
  5  4  1  0  0  0
  4  1  1  0  0  0
  1  2  1  0  0  0
  1  3  2  0  0  0
  3 10  1  0  0  0
 10 11  1  0  0  0
 11 12  1  0  0  0
 12 13  1  0  0  0
 12 14  2  0  0  0
 14 16  1  0  0  0
 15 17  1  0  0  0
M  END
> <minimizedAffinity>
-7.95073

> <CNNscore>
0.6885774732

> <CNNaffinity>
6.2207436562

> <CNN_VS>
4.2834639549

> <CNNaffinity_variance>
0.1759381592

$$$$



 17 16  0  0  0  0  0  0  0  0999 V2000
  -46.3543   58.1179   65.3019 C   0  0  0  0  0  0  0  0  0  0  0  0
  -46.8318   57.0137   66.2017 C   0  0  0  0  0  0  0  0  0  0  0  0
  -45.0794   58.1216   64.8880 C   0  0  0  0  0  0  0  0  0  0  0  0
  -47.2969   59.2163   64.8572 C   0  0  0  0  0  0  0  0  0  0  0  0
  -48.1930   58.7321   63.7220 C   0  0  0  0  0  0  0  0  0  0  0  0
  -49.8132   59.9847   61.7181 C   0  0  0  0  0  0  0  0  0  0  0  0
  -50.3932   59.6628   63.0614 C   0  0  0  0  0  0  0  0  0  0  0  0
  -51.8243   60.0022   63.3516 C   0  0  0  0  0  0  0  0  0  0  0  0
  -49.6372   59.0783   64.0026 C   0  0  0  0  0  0  0  0  0  0  0  0
  -44.1352   57.0248   65.3237 C   0  0  0  0  0  0  0  0  0  0  0  0
  -43.3310   57.4750   66.5373 C   0  0  0  0  0  0  0  0  0  0  0  0
  -42.1451   58.3047   66.0953 C   0  0  0  0  0  0  0  0  0  0  0  0
  -41.3992   57.9304   64.8522 C   0  0  0  0  0  0  0  0  0  0  0  0
  -41.7646   59.3783   66.8033 C   0  0  0  0  0  0  0  0  0  0  0  0
  -41.0048   61.5684   66.1271 O   0  0  0  0  0  0  0  0  0  0  0  0
  -40.5856   60.2219   66.3749 C   0  0  0  0  0  0  0  0  0  0  0  0
  -40.2408   62.0997   65.8532 H   0  0  0  0  0  0  0  0  0  0  0  0
  6  7  1  0  0  0
 15 16  1  0  0  0
  7  8  1  0  0  0
  7  9  2  0  0  0
  9  5  1  0  0  0
  5  4  1  0  0  0
  4  1  1  0  0  0
  1  2  1  0  0  0
  1  3  2  0  0  0
  3 10  1  0  0  0
 10 11  1  0  0  0
 11 12  1  0  0  0
 12 13  1  0  0  0
 12 14  2  0  0  0
 14 16  1  0  0  0
 15 17  1  0  0  0
M  END
> <minimizedAffinity>
-7.58415

> <CNNscore>
0.6421412826

> <CNNaffinity>
5.8734068871

> <CNN_VS>
3.7715570927

> <CNNaffinity_variance>
0.1161248311

$$$$
