


 17 16  0  0  0  0  0  0  0  0999 V2000
  -46.6413   59.3339   65.8032 C   0  0  0  0  0  0  0  0  0  0  0  0
  -46.5491   57.9434   66.3642 C   0  0  0  0  0  0  0  0  0  0  0  0
  -45.5341   59.9273   65.3355 C   0  0  0  0  0  0  0  0  0  0  0  0
  -47.9673   60.0636   65.7568 C   0  0  0  0  0  0  0  0  0  0  0  0
  -49.1235   59.0757   65.6414 C   0  0  0  0  0  0  0  0  0  0  0  0
  -49.5713   58.2926   62.9219 C   0  0  0  0  0  0  0  0  0  0  0  0
  -50.4641   59.3066   63.5694 C   0  0  0  0  0  0  0  0  0  0  0  0
  -51.5905   59.9105   62.7859 C   0  0  0  0  0  0  0  0  0  0  0  0
  -50.2562   59.6771   64.8417 C   0  0  0  0  0  0  0  0  0  0  0  0
  -44.2087   59.2019   65.3737 C   0  0  0  0  0  0  0  0  0  0  0  0
  -43.1696   59.9626   64.5589 C   0  0  0  0  0  0  0  0  0  0  0  0
  -41.9795   60.3073   65.4278 C   0  0  0  0  0  0  0  0  0  0  0  0
  -42.1276   60.3222   66.9176 C   0  0  0  0  0  0  0  0  0  0  0  0
  -40.7914   60.5890   64.8730 C   0  0  0  0  0  0  0  0  0  0  0  0
  -39.4048   62.3501   65.7715 O   0  0  0  0  0  0  0  0  0  0  0  0
  -39.5902   60.9310   65.7248 C   0  0  0  0  0  0  0  0  0  0  0  0
  -38.6321   62.5573   66.3202 H   0  0  0  0  0  0  0  0  0  0  0  0
  6  7  1  0  0  0
 15 16  1  0  0  0
  7  8  1  0  0  0
  7  9  2  0  0  0
  9  5  1  0  0  0
  5  4  1  0  0  0
  4  1  1  0  0  0
  1  2  1  0  0  0
  1  3  2  0  0  0
  3 10  1  0  0  0
 10 11  1  0  0  0
 11 12  1  0  0  0
 12 13  1  0  0  0
 12 14  2  0  0  0
 14 16  1  0  0  0
 15 17  1  0  0  0
M  END
> <minimizedAffinity>
-7.51906

> <CNNscore>
0.8745552301

> <CNNaffinity>
6.3042149544

> <CNN_VS>
5.5133843422

> <CNNaffinity_variance>
0.5749756694

$$$$



 17 16  0  0  0  0  0  0  0  0999 V2000
  -46.8516   58.0050   65.5421 C   0  0  0  0  0  0  0  0  0  0  0  0
  -46.1507   57.0004   66.4118 C   0  0  0  0  0  0  0  0  0  0  0  0
  -46.2424   59.1647   65.2578 C   0  0  0  0  0  0  0  0  0  0  0  0
  -48.2291   57.7176   64.9831 C   0  0  0  0  0  0  0  0  0  0  0  0
  -48.5438   58.6491   63.8171 C   0  0  0  0  0  0  0  0  0  0  0  0
  -51.0745   59.3875   62.6948 C   0  0  0  0  0  0  0  0  0  0  0  0
  -50.3161   58.2216   62.1379 C   0  0  0  0  0  0  0  0  0  0  0  0
  -50.8900   57.4427   60.9927 C   0  0  0  0  0  0  0  0  0  0  0  0
  -49.1321   57.8718   62.6621 C   0  0  0  0  0  0  0  0  0  0  0  0
  -44.8650   59.4550   65.8080 C   0  0  0  0  0  0  0  0  0  0  0  0
  -43.8217   59.3337   64.7039 C   0  0  0  0  0  0  0  0  0  0  0  0
  -42.4598   59.7312   65.2308 C   0  0  0  0  0  0  0  0  0  0  0  0
  -41.8857   59.0190   66.4161 C   0  0  0  0  0  0  0  0  0  0  0  0
  -41.7599   60.7091   64.6370 C   0  0  0  0  0  0  0  0  0  0  0  0
  -40.4932   62.3253   65.9077 O   0  0  0  0  0  0  0  0  0  0  0  0
  -40.3961   61.1166   65.1461 C   0  0  0  0  0  0  0  0  0  0  0  0
  -39.6131   62.5768   66.2288 H   0  0  0  0  0  0  0  0  0  0  0  0
  6  7  1  0  0  0
 15 16  1  0  0  0
  7  8  1  0  0  0
  7  9  2  0  0  0
  9  5  1  0  0  0
  5  4  1  0  0  0
  4  1  1  0  0  0
  1  2  1  0  0  0
  1  3  2  0  0  0
  3 10  1  0  0  0
 10 11  1  0  0  0
 11 12  1  0  0  0
 12 13  1  0  0  0
 12 14  2  0  0  0
 14 16  1  0  0  0
 15 17  1  0  0  0
M  END
> <minimizedAffinity>
-7.63381

> <CNNscore>
0.8634806871

> <CNNaffinity>
6.4225525856

> <CNN_VS>
5.5457501411

> <CNNaffinity_variance>
0.5334296227

$$$$



 17 16  0  0  0  0  0  0  0  0999 V2000
  -47.1512   59.4470   65.2913 C   0  0  0  0  0  0  0  0  0  0  0  0
  -47.3732   60.8664   64.8519 C   0  0  0  0  0  0  0  0  0  0  0  0
  -45.8982   58.9918   65.4304 C   0  0  0  0  0  0  0  0  0  0  0  0
  -48.3239   58.5343   65.5820 C   0  0  0  0  0  0  0  0  0  0  0  0
  -49.5699   59.0021   64.8372 C   0  0  0  0  0  0  0  0  0  0  0  0
  -51.3899   59.8917   62.8110 C   0  0  0  0  0  0  0  0  0  0  0  0
  -50.6062   58.6297   62.6166 C   0  0  0  0  0  0  0  0  0  0  0  0
  -50.7818   57.8345   61.3580 C   0  0  0  0  0  0  0  0  0  0  0  0
  -49.7548   58.2092   63.5639 C   0  0  0  0  0  0  0  0  0  0  0  0
  -44.7235   59.8997   65.1473 C   0  0  0  0  0  0  0  0  0  0  0  0
  -43.5447   59.5274   66.0384 C   0  0  0  0  0  0  0  0  0  0  0  0
  -42.2624   60.0907   65.4651 C   0  0  0  0  0  0  0  0  0  0  0  0
  -42.1833   60.4207   64.0069 C   0  0  0  0  0  0  0  0  0  0  0  0
  -41.2009   60.3060   66.2560 C   0  0  0  0  0  0  0  0  0  0  0  0
  -39.8808   62.2928   65.8804 O   0  0  0  0  0  0  0  0  0  0  0  0
  -39.9133   60.8724   65.7023 C   0  0  0  0  0  0  0  0  0  0  0  0
  -39.0510   62.6447   65.5219 H   0  0  0  0  0  0  0  0  0  0  0  0
  6  7  1  0  0  0
 15 16  1  0  0  0
  7  8  1  0  0  0
  7  9  2  0  0  0
  9  5  1  0  0  0
  5  4  1  0  0  0
  4  1  1  0  0  0
  1  2  1  0  0  0
  1  3  2  0  0  0
  3 10  1  0  0  0
 10 11  1  0  0  0
 11 12  1  0  0  0
 12 13  1  0  0  0
 12 14  2  0  0  0
 14 16  1  0  0  0
 15 17  1  0  0  0
M  END
> <minimizedAffinity>
-7.71693

> <CNNscore>
0.8102742434

> <CNNaffinity>
6.2281599045

> <CNN_VS>
5.0465173721

> <CNNaffinity_variance>
0.6003004909

$$$$



 17 16  0  0  0  0  0  0  0  0999 V2000
  -50.3933   58.1781   61.9465 C   0  0  0  0  0  0  0  0  0  0  0  0
  -51.1639   59.3452   62.4949 C   0  0  0  0  0  0  0  0  0  0  0  0
  -49.2306   57.8333   62.5174 C   0  0  0  0  0  0  0  0  0  0  0  0
  -50.9188   57.3898   60.7653 C   0  0  0  0  0  0  0  0  0  0  0  0
  -49.8270   56.4990   60.1817 C   0  0  0  0  0  0  0  0  0  0  0  0
  -47.4036   55.4363   59.0830 C   0  0  0  0  0  0  0  0  0  0  0  0
  -47.9896   56.6994   58.5302 C   0  0  0  0  0  0  0  0  0  0  0  0
  -47.2998   57.4048   57.4015 C   0  0  0  0  0  0  0  0  0  0  0  0
  -49.1229   57.2009   59.0434 C   0  0  0  0  0  0  0  0  0  0  0  0
  -48.7037   58.6126   63.7003 C   0  0  0  0  0  0  0  0  0  0  0  0
  -48.4469   57.6759   64.8745 C   0  0  0  0  0  0  0  0  0  0  0  0
  -47.0336   57.8578   65.3841 C   0  0  0  0  0  0  0  0  0  0  0  0
  -46.3349   56.7179   66.0579 C   0  0  0  0  0  0  0  0  0  0  0  0
  -46.3995   59.0292   65.2267 C   0  0  0  0  0  0  0  0  0  0  0  0
  -44.0609   59.1403   64.6356 O   0  0  0  0  0  0  0  0  0  0  0  0
  -44.9862   59.2282   65.7248 C   0  0  0  0  0  0  0  0  0  0  0  0
  -43.1584   59.2694   64.9669 H   0  0  0  0  0  0  0  0  0  0  0  0
  6  7  1  0  0  0
 15 16  1  0  0  0
  7  8  1  0  0  0
  7  9  2  0  0  0
  9  5  1  0  0  0
  5  4  1  0  0  0
  4  1  1  0  0  0
  1  2  1  0  0  0
  1  3  2  0  0  0
  3 10  1  0  0  0
 10 11  1  0  0  0
 11 12  1  0  0  0
 12 13  1  0  0  0
 12 14  2  0  0  0
 14 16  1  0  0  0
 15 17  1  0  0  0
M  END
> <minimizedAffinity>
-7.99336

> <CNNscore>
0.8085227013

> <CNNaffinity>
6.6714429855

> <CNN_VS>
5.3940129280

> <CNNaffinity_variance>
0.5469885468

$$$$



 17 16  0  0  0  0  0  0  0  0999 V2000
  -47.2793   58.7662   65.3322 C   0  0  0  0  0  0  0  0  0  0  0  0
  -47.7450   60.0311   65.9956 C   0  0  0  0  0  0  0  0  0  0  0  0
  -45.9879   58.6389   64.9964 C   0  0  0  0  0  0  0  0  0  0  0  0
  -48.2494   57.6392   65.0469 C   0  0  0  0  0  0  0  0  0  0  0  0
  -49.4994   58.1662   64.3497 C   0  0  0  0  0  0  0  0  0  0  0  0
  -51.3344   59.9447   63.0540 C   0  0  0  0  0  0  0  0  0  0  0  0
  -49.9967   59.6657   62.4398 C   0  0  0  0  0  0  0  0  0  0  0  0
  -49.6254   60.3198   61.1431 C   0  0  0  0  0  0  0  0  0  0  0  0
  -49.1360   58.8321   63.0425 C   0  0  0  0  0  0  0  0  0  0  0  0
  -45.0135   59.7579   65.2837 C   0  0  0  0  0  0  0  0  0  0  0  0
  -43.7645   59.2064   65.9606 C   0  0  0  0  0  0  0  0  0  0  0  0
  -42.5377   59.9393   65.4624 C   0  0  0  0  0  0  0  0  0  0  0  0
  -42.4043   60.2588   64.0058 C   0  0  0  0  0  0  0  0  0  0  0  0
  -41.5751   60.3136   66.3180 C   0  0  0  0  0  0  0  0  0  0  0  0
  -40.5293   62.4636   65.9792 O   0  0  0  0  0  0  0  0  0  0  0  0
  -40.3449   61.0505   65.8398 C   0  0  0  0  0  0  0  0  0  0  0  0
  -39.7345   62.9256   65.6696 H   0  0  0  0  0  0  0  0  0  0  0  0
  6  7  1  0  0  0
 15 16  1  0  0  0
  7  8  1  0  0  0
  7  9  2  0  0  0
  9  5  1  0  0  0
  5  4  1  0  0  0
  4  1  1  0  0  0
  1  2  1  0  0  0
  1  3  2  0  0  0
  3 10  1  0  0  0
 10 11  1  0  0  0
 11 12  1  0  0  0
 12 13  1  0  0  0
 12 14  2  0  0  0
 14 16  1  0  0  0
 15 17  1  0  0  0
M  END
> <minimizedAffinity>
-7.62323

> <CNNscore>
0.7837253809

> <CNNaffinity>
6.1655359268

> <CNN_VS>
4.8320870399

> <CNNaffinity_variance>
0.4788589478

$$$$



 17 16  0  0  0  0  0  0  0  0999 V2000
  -50.4878   58.3220   62.1077 C   0  0  0  0  0  0  0  0  0  0  0  0
  -51.3202   59.4753   62.5913 C   0  0  0  0  0  0  0  0  0  0  0  0
  -49.3858   57.9775   62.7887 C   0  0  0  0  0  0  0  0  0  0  0  0
  -50.8840   57.5472   60.8686 C   0  0  0  0  0  0  0  0  0  0  0  0
  -49.7274   56.6813   60.3803 C   0  0  0  0  0  0  0  0  0  0  0  0
  -47.4884   55.4189   59.1142 C   0  0  0  0  0  0  0  0  0  0  0  0
  -47.9970   56.7335   58.6064 C   0  0  0  0  0  0  0  0  0  0  0  0
  -47.3265   57.3852   57.4347 C   0  0  0  0  0  0  0  0  0  0  0  0
  -49.0436   57.3283   59.1979 C   0  0  0  0  0  0  0  0  0  0  0  0
  -48.9882   58.7434   64.0295 C   0  0  0  0  0  0  0  0  0  0  0  0
  -48.6518   57.7767   65.1585 C   0  0  0  0  0  0  0  0  0  0  0  0
  -47.2145   57.9660   65.5928 C   0  0  0  0  0  0  0  0  0  0  0  0
  -46.7360   59.3236   66.0046 C   0  0  0  0  0  0  0  0  0  0  0  0
  -46.3700   56.9244   65.6212 C   0  0  0  0  0  0  0  0  0  0  0  0
  -44.0610   56.3757   65.1752 O   0  0  0  0  0  0  0  0  0  0  0  0
  -44.9322   57.0931   66.0565 C   0  0  0  0  0  0  0  0  0  0  0  0
  -43.1423   56.4911   65.4641 H   0  0  0  0  0  0  0  0  0  0  0  0
  6  7  1  0  0  0
 15 16  1  0  0  0
  7  8  1  0  0  0
  7  9  2  0  0  0
  9  5  1  0  0  0
  5  4  1  0  0  0
  4  1  1  0  0  0
  1  2  1  0  0  0
  1  3  2  0  0  0
  3 10  1  0  0  0
 10 11  1  0  0  0
 11 12  1  0  0  0
 12 13  1  0  0  0
 12 14  2  0  0  0
 14 16  1  0  0  0
 15 17  1  0  0  0
M  END
> <minimizedAffinity>
-8.06918

> <CNNscore>
0.7810286283

> <CNNaffinity>
6.7049226761

> <CNN_VS>
5.2367367744

> <CNNaffinity_variance>
0.6199262738

$$$$



 17 16  0  0  0  0  0  0  0  0999 V2000
  -50.3781   58.9801   63.3290 C   0  0  0  0  0  0  0  0  0  0  0  0
  -50.8111   60.0537   64.2865 C   0  0  0  0  0  0  0  0  0  0  0  0
  -49.4040   58.1331   63.6902 C   0  0  0  0  0  0  0  0  0  0  0  0
  -51.0326   58.8446   61.9704 C   0  0  0  0  0  0  0  0  0  0  0  0
  -50.5830   57.5611   61.2800 C   0  0  0  0  0  0  0  0  0  0  0  0
  -49.0100   55.5324   60.0073 C   0  0  0  0  0  0  0  0  0  0  0  0
  -49.0237   56.9272   59.4605 C   0  0  0  0  0  0  0  0  0  0  0  0
  -48.2082   57.2555   58.2462 C   0  0  0  0  0  0  0  0  0  0  0  0
  -49.7573   57.8799   60.0549 C   0  0  0  0  0  0  0  0  0  0  0  0
  -48.7508   58.2596   65.0473 C   0  0  0  0  0  0  0  0  0  0  0  0
  -47.3368   58.8086   64.9008 C   0  0  0  0  0  0  0  0  0  0  0  0
  -46.3254   57.7315   65.2285 C   0  0  0  0  0  0  0  0  0  0  0  0
  -46.7425   56.5431   66.0379 C   0  0  0  0  0  0  0  0  0  0  0  0
  -45.0617   57.8294   64.7901 C   0  0  0  0  0  0  0  0  0  0  0  0
  -43.0188   57.2890   65.9588 O   0  0  0  0  0  0  0  0  0  0  0  0
  -44.0387   56.7614   65.1033 C   0  0  0  0  0  0  0  0  0  0  0  0
  -42.3689   56.5956   66.1528 H   0  0  0  0  0  0  0  0  0  0  0  0
  6  7  1  0  0  0
 15 16  1  0  0  0
  7  8  1  0  0  0
  7  9  2  0  0  0
  9  5  1  0  0  0
  5  4  1  0  0  0
  4  1  1  0  0  0
  1  2  1  0  0  0
  1  3  2  0  0  0
  3 10  1  0  0  0
 10 11  1  0  0  0
 11 12  1  0  0  0
 12 13  1  0  0  0
 12 14  2  0  0  0
 14 16  1  0  0  0
 15 17  1  0  0  0
M  END
> <minimizedAffinity>
-7.62127

> <CNNscore>
0.7627851963

> <CNNaffinity>
6.6233282089

> <CNN_VS>
5.0521764755

> <CNNaffinity_variance>
0.5090854168

$$$$



 17 16  0  0  0  0  0  0  0  0999 V2000
  -45.6347   58.2289   65.2728 C   0  0  0  0  0  0  0  0  0  0  0  0
  -44.6530   57.1560   64.8960 C   0  0  0  0  0  0  0  0  0  0  0  0
  -45.2365   59.5088   65.2807 C   0  0  0  0  0  0  0  0  0  0  0  0
  -47.0624   57.8790   65.6358 C   0  0  0  0  0  0  0  0  0  0  0  0
  -48.0426   58.8123   64.9328 C   0  0  0  0  0  0  0  0  0  0  0  0
  -50.5756   59.6228   63.8666 C   0  0  0  0  0  0  0  0  0  0  0  0
  -49.7897   58.5378   63.1960 C   0  0  0  0  0  0  0  0  0  0  0  0
  -50.3371   57.8775   61.9666 C   0  0  0  0  0  0  0  0  0  0  0  0
  -48.6045   58.1544   63.6935 C   0  0  0  0  0  0  0  0  0  0  0  0
  -43.8143   59.8650   64.9137 C   0  0  0  0  0  0  0  0  0  0  0  0
  -42.9734   60.0355   66.1731 C   0  0  0  0  0  0  0  0  0  0  0  0
  -41.5019   59.9492   65.8303 C   0  0  0  0  0  0  0  0  0  0  0  0
  -40.9298   58.6576   65.3344 C   0  0  0  0  0  0  0  0  0  0  0  0
  -40.7099   61.0241   65.9576 C   0  0  0  0  0  0  0  0  0  0  0  0
  -38.6525   62.2620   65.7007 O   0  0  0  0  0  0  0  0  0  0  0  0
  -39.2389   60.9584   65.6156 C   0  0  0  0  0  0  0  0  0  0  0  0
  -37.7097   62.2075   65.4794 H   0  0  0  0  0  0  0  0  0  0  0  0
  6  7  1  0  0  0
 15 16  1  0  0  0
  7  8  1  0  0  0
  7  9  2  0  0  0
  9  5  1  0  0  0
  5  4  1  0  0  0
  4  1  1  0  0  0
  1  2  1  0  0  0
  1  3  2  0  0  0
  3 10  1  0  0  0
 10 11  1  0  0  0
 11 12  1  0  0  0
 12 13  1  0  0  0
 12 14  2  0  0  0
 14 16  1  0  0  0
 15 17  1  0  0  0
M  END
> <minimizedAffinity>
-7.38213

> <CNNscore>
0.7503507137

> <CNNaffinity>
6.3040781021

> <CNN_VS>
4.7302694321

> <CNNaffinity_variance>
0.7859395742

$$$$



 17 16  0  0  0  0  0  0  0  0999 V2000
  -46.8299   57.8122   65.5031 C   0  0  0  0  0  0  0  0  0  0  0  0
  -46.0247   56.7062   66.1237 C   0  0  0  0  0  0  0  0  0  0  0  0
  -46.3179   59.0501   65.4571 C   0  0  0  0  0  0  0  0  0  0  0  0
  -48.2039   57.5405   64.9277 C   0  0  0  0  0  0  0  0  0  0  0  0
  -48.3614   58.2099   63.5664 C   0  0  0  0  0  0  0  0  0  0  0  0
  -50.5586   57.8443   61.7642 C   0  0  0  0  0  0  0  0  0  0  0  0
  -50.5627   58.9869   62.7333 C   0  0  0  0  0  0  0  0  0  0  0  0
  -51.7209   59.9384   62.7525 C   0  0  0  0  0  0  0  0  0  0  0  0
  -49.5349   59.1623   63.5770 C   0  0  0  0  0  0  0  0  0  0  0  0
  -44.9445   59.3265   66.0244 C   0  0  0  0  0  0  0  0  0  0  0  0
  -43.9901   59.7424   64.9116 C   0  0  0  0  0  0  0  0  0  0  0  0
  -42.6091   59.1828   65.1764 C   0  0  0  0  0  0  0  0  0  0  0  0
  -42.4633   57.8501   65.8427 C   0  0  0  0  0  0  0  0  0  0  0  0
  -41.5160   59.8676   64.8088 C   0  0  0  0  0  0  0  0  0  0  0  0
  -39.5117   58.9494   63.8234 O   0  0  0  0  0  0  0  0  0  0  0  0
  -40.1286   59.3228   65.0605 C   0  0  0  0  0  0  0  0  0  0  0  0
  -38.6231   58.6016   63.9973 H   0  0  0  0  0  0  0  0  0  0  0  0
  6  7  1  0  0  0
 15 16  1  0  0  0
  7  8  1  0  0  0
  7  9  2  0  0  0
  9  5  1  0  0  0
  5  4  1  0  0  0
  4  1  1  0  0  0
  1  2  1  0  0  0
  1  3  2  0  0  0
  3 10  1  0  0  0
 10 11  1  0  0  0
 11 12  1  0  0  0
 12 13  1  0  0  0
 12 14  2  0  0  0
 14 16  1  0  0  0
 15 17  1  0  0  0
M  END
> <minimizedAffinity>
-7.14613

> <CNNscore>
0.7046931386

> <CNNaffinity>
6.2321739197

> <CNN_VS>
4.3917703629

> <CNNaffinity_variance>
0.3591708839

$$$$
