


 17 16  0  0  0  0  0  0  0  0999 V2000
  -50.0966   58.1104   62.1125 C   0  0  0  0  0  0  0  0  0  0  0  0
  -51.3409   58.6507   62.7581 C   0  0  0  0  0  0  0  0  0  0  0  0
  -48.9225   58.2319   62.7476 C   0  0  0  0  0  0  0  0  0  0  0  0
  -50.1586   57.4291   60.7617 C   0  0  0  0  0  0  0  0  0  0  0  0
  -48.8354   57.5815   60.0187 C   0  0  0  0  0  0  0  0  0  0  0  0
  -46.8751   57.7359   57.9348 C   0  0  0  0  0  0  0  0  0  0  0  0
  -47.7034   56.4982   58.0981 C   0  0  0  0  0  0  0  0  0  0  0  0
  -47.5025   55.3431   57.1639 C   0  0  0  0  0  0  0  0  0  0  0  0
  -48.6234   56.4232   59.0713 C   0  0  0  0  0  0  0  0  0  0  0  0
  -48.8549   58.9058   64.0987 C   0  0  0  0  0  0  0  0  0  0  0  0
  -48.7356   57.8610   65.2017 C   0  0  0  0  0  0  0  0  0  0  0  0
  -47.3789   57.9594   65.8651 C   0  0  0  0  0  0  0  0  0  0  0  0
  -47.0594   57.0817   67.0352 C   0  0  0  0  0  0  0  0  0  0  0  0
  -46.4580   58.8194   65.4055 C   0  0  0  0  0  0  0  0  0  0  0  0
  -44.1728   59.5592   65.1576 O   0  0  0  0  0  0  0  0  0  0  0  0
  -45.0960   58.9283   66.0521 C   0  0  0  0  0  0  0  0  0  0  0  0
  -43.3033   59.6236   65.5828 H   0  0  0  0  0  0  0  0  0  0  0  0
  6  7  1  0  0  0
 15 16  1  0  0  0
  7  8  1  0  0  0
  7  9  2  0  0  0
  9  5  1  0  0  0
  5  4  1  0  0  0
  4  1  1  0  0  0
  1  2  1  0  0  0
  1  3  2  0  0  0
  3 10  1  0  0  0
 10 11  1  0  0  0
 11 12  1  0  0  0
 12 13  1  0  0  0
 12 14  2  0  0  0
 14 16  1  0  0  0
 15 17  1  0  0  0
M  END
> <minimizedAffinity>
-7.73186

> <CNNscore>
0.8844462037

> <CNNaffinity>
6.7555341721

> <CNN_VS>
5.9749064445

> <CNNaffinity_variance>
0.9810261726

$$$$



 17 16  0  0  0  0  0  0  0  0999 V2000
  -47.6146   58.0124   65.7853 C   0  0  0  0  0  0  0  0  0  0  0  0
  -47.2067   56.8777   66.6814 C   0  0  0  0  0  0  0  0  0  0  0  0
  -46.7602   59.0243   65.5783 C   0  0  0  0  0  0  0  0  0  0  0  0
  -48.9718   58.0194   65.1141 C   0  0  0  0  0  0  0  0  0  0  0  0
  -48.9284   58.8197   63.8165 C   0  0  0  0  0  0  0  0  0  0  0  0
  -51.5088   59.4981   62.7721 C   0  0  0  0  0  0  0  0  0  0  0  0
  -50.7430   58.3467   62.1956 C   0  0  0  0  0  0  0  0  0  0  0  0
  -51.3354   57.5507   61.0719 C   0  0  0  0  0  0  0  0  0  0  0  0
  -49.5356   58.0250   62.6834 C   0  0  0  0  0  0  0  0  0  0  0  0
  -45.4018   59.0203   66.2408 C   0  0  0  0  0  0  0  0  0  0  0  0
  -44.3191   59.3545   65.2218 C   0  0  0  0  0  0  0  0  0  0  0  0
  -42.9614   59.3609   65.8904 C   0  0  0  0  0  0  0  0  0  0  0  0
  -42.8693   59.4329   67.3830 C   0  0  0  0  0  0  0  0  0  0  0  0
  -41.8414   59.2918   65.1558 C   0  0  0  0  0  0  0  0  0  0  0  0
  -39.9123   60.6076   65.7709 O   0  0  0  0  0  0  0  0  0  0  0  0
  -40.4767   59.2921   65.8059 C   0  0  0  0  0  0  0  0  0  0  0  0
  -39.0378   60.5955   66.1904 H   0  0  0  0  0  0  0  0  0  0  0  0
  6  7  1  0  0  0
 15 16  1  0  0  0
  7  8  1  0  0  0
  7  9  2  0  0  0
  9  5  1  0  0  0
  5  4  1  0  0  0
  4  1  1  0  0  0
  1  2  1  0  0  0
  1  3  2  0  0  0
  3 10  1  0  0  0
 10 11  1  0  0  0
 11 12  1  0  0  0
 12 13  1  0  0  0
 12 14  2  0  0  0
 14 16  1  0  0  0
 15 17  1  0  0  0
M  END
> <minimizedAffinity>
-7.68500

> <CNNscore>
0.8824126124

> <CNNaffinity>
6.4587173462

> <CNN_VS>
5.6992535591

> <CNNaffinity_variance>
0.4468426704

$$$$



 17 16  0  0  0  0  0  0  0  0999 V2000
  -47.3391   57.8354   66.3314 C   0  0  0  0  0  0  0  0  0  0  0  0
  -46.6286   57.0322   67.3835 C   0  0  0  0  0  0  0  0  0  0  0  0
  -46.7206   58.8905   65.7828 C   0  0  0  0  0  0  0  0  0  0  0  0
  -48.7368   57.4618   65.8847 C   0  0  0  0  0  0  0  0  0  0  0  0
  -49.6393   58.6908   65.8500 C   0  0  0  0  0  0  0  0  0  0  0  0
  -49.4103   60.3046   63.4937 C   0  0  0  0  0  0  0  0  0  0  0  0
  -50.5394   59.3295   63.6307 C   0  0  0  0  0  0  0  0  0  0  0  0
  -51.5493   59.2052   62.5298 C   0  0  0  0  0  0  0  0  0  0  0  0
  -50.6509   58.5738   64.7333 C   0  0  0  0  0  0  0  0  0  0  0  0
  -45.3233   59.2650   66.2203 C   0  0  0  0  0  0  0  0  0  0  0  0
  -44.3388   59.0477   65.0776 C   0  0  0  0  0  0  0  0  0  0  0  0
  -42.9245   58.9969   65.6137 C   0  0  0  0  0  0  0  0  0  0  0  0
  -42.6661   58.4265   66.9736 C   0  0  0  0  0  0  0  0  0  0  0  0
  -41.9006   59.4493   64.8749 C   0  0  0  0  0  0  0  0  0  0  0  0
  -40.0962   60.6851   65.8987 O   0  0  0  0  0  0  0  0  0  0  0  0
  -40.4807   59.4024   65.3915 C   0  0  0  0  0  0  0  0  0  0  0  0
  -39.1844   60.6430   66.2270 H   0  0  0  0  0  0  0  0  0  0  0  0
  6  7  1  0  0  0
 15 16  1  0  0  0
  7  8  1  0  0  0
  7  9  2  0  0  0
  9  5  1  0  0  0
  5  4  1  0  0  0
  4  1  1  0  0  0
  1  2  1  0  0  0
  1  3  2  0  0  0
  3 10  1  0  0  0
 10 11  1  0  0  0
 11 12  1  0  0  0
 12 13  1  0  0  0
 12 14  2  0  0  0
 14 16  1  0  0  0
 15 17  1  0  0  0
M  END
> <minimizedAffinity>
-7.34697

> <CNNscore>
0.8591387868

> <CNNaffinity>
6.3278412819

> <CNN_VS>
5.4364938736

> <CNNaffinity_variance>
0.3039677739

$$$$



 17 16  0  0  0  0  0  0  0  0999 V2000
  -50.9712   58.5983   62.4226 C   0  0  0  0  0  0  0  0  0  0  0  0
  -51.8198   59.8109   62.6800 C   0  0  0  0  0  0  0  0  0  0  0  0
  -50.0389   58.2478   63.3197 C   0  0  0  0  0  0  0  0  0  0  0  0
  -51.1631   57.7710   61.1691 C   0  0  0  0  0  0  0  0  0  0  0  0
  -49.9151   56.9470   60.8696 C   0  0  0  0  0  0  0  0  0  0  0  0
  -48.1291   55.5166   59.1452 C   0  0  0  0  0  0  0  0  0  0  0  0
  -48.1758   57.0135   59.1050 C   0  0  0  0  0  0  0  0  0  0  0  0
  -47.2813   57.7580   58.1600 C   0  0  0  0  0  0  0  0  0  0  0  0
  -49.0092   57.6865   59.9122 C   0  0  0  0  0  0  0  0  0  0  0  0
  -49.8465   59.0662   64.5757 C   0  0  0  0  0  0  0  0  0  0  0  0
  -49.6273   58.1486   65.7725 C   0  0  0  0  0  0  0  0  0  0  0  0
  -48.1616   58.1274   66.1486 C   0  0  0  0  0  0  0  0  0  0  0  0
  -47.3847   59.4069   66.1803 C   0  0  0  0  0  0  0  0  0  0  0  0
  -47.5571   56.9724   66.4638 C   0  0  0  0  0  0  0  0  0  0  0  0
  -45.3261   56.3296   65.7997 O   0  0  0  0  0  0  0  0  0  0  0  0
  -46.0952   56.9321   66.8466 C   0  0  0  0  0  0  0  0  0  0  0  0
  -44.3909   56.3092   66.0562 H   0  0  0  0  0  0  0  0  0  0  0  0
  6  7  1  0  0  0
 15 16  1  0  0  0
  7  8  1  0  0  0
  7  9  2  0  0  0
  9  5  1  0  0  0
  5  4  1  0  0  0
  4  1  1  0  0  0
  1  2  1  0  0  0
  1  3  2  0  0  0
  3 10  1  0  0  0
 10 11  1  0  0  0
 11 12  1  0  0  0
 12 13  1  0  0  0
 12 14  2  0  0  0
 14 16  1  0  0  0
 15 17  1  0  0  0
M  END
> <minimizedAffinity>
-8.18586

> <CNNscore>
0.7985906005

> <CNNaffinity>
6.6433105469

> <CNN_VS>
5.3052854538

> <CNNaffinity_variance>
0.8753806949

$$$$



 17 16  0  0  0  0  0  0  0  0999 V2000
  -48.2883   59.1702   65.1857 C   0  0  0  0  0  0  0  0  0  0  0  0
  -48.0219   60.6215   64.9033 C   0  0  0  0  0  0  0  0  0  0  0  0
  -47.2562   58.3202   65.2803 C   0  0  0  0  0  0  0  0  0  0  0  0
  -49.7037   58.6644   65.3689 C   0  0  0  0  0  0  0  0  0  0  0  0
  -50.6498   59.3368   64.3794 C   0  0  0  0  0  0  0  0  0  0  0  0
  -50.0381   59.7268   61.6076 C   0  0  0  0  0  0  0  0  0  0  0  0
  -50.8293   58.5311   62.0423 C   0  0  0  0  0  0  0  0  0  0  0  0
  -51.3009   57.5422   61.0190 C   0  0  0  0  0  0  0  0  0  0  0  0
  -51.1192   58.3464   63.3388 C   0  0  0  0  0  0  0  0  0  0  0  0
  -45.8408   58.8201   65.1042 C   0  0  0  0  0  0  0  0  0  0  0  0
  -45.1348   58.8851   66.4531 C   0  0  0  0  0  0  0  0  0  0  0  0
  -43.6782   59.2472   66.2595 C   0  0  0  0  0  0  0  0  0  0  0  0
  -42.7998   59.4549   67.4539 C   0  0  0  0  0  0  0  0  0  0  0  0
  -43.1669   59.3727   65.0259 C   0  0  0  0  0  0  0  0  0  0  0  0
  -41.5898   61.1103   64.4558 O   0  0  0  0  0  0  0  0  0  0  0  0
  -41.7134   59.7290   64.8127 C   0  0  0  0  0  0  0  0  0  0  0  0
  -40.6540   61.3271   64.3217 H   0  0  0  0  0  0  0  0  0  0  0  0
  6  7  1  0  0  0
 15 16  1  0  0  0
  7  8  1  0  0  0
  7  9  2  0  0  0
  9  5  1  0  0  0
  5  4  1  0  0  0
  4  1  1  0  0  0
  1  2  1  0  0  0
  1  3  2  0  0  0
  3 10  1  0  0  0
 10 11  1  0  0  0
 11 12  1  0  0  0
 12 13  1  0  0  0
 12 14  2  0  0  0
 14 16  1  0  0  0
 15 17  1  0  0  0
M  END
> <minimizedAffinity>
-7.59466

> <CNNscore>
0.7609053254

> <CNNaffinity>
6.0606069565

> <CNN_VS>
4.6115479469

> <CNNaffinity_variance>
0.3647581935

$$$$



 17 16  0  0  0  0  0  0  0  0999 V2000
  -46.9418   58.9412   65.7294 C   0  0  0  0  0  0  0  0  0  0  0  0
  -46.8805   57.4425   65.6469 C   0  0  0  0  0  0  0  0  0  0  0  0
  -45.8225   59.6547   65.5432 C   0  0  0  0  0  0  0  0  0  0  0  0
  -48.2504   59.6479   66.0138 C   0  0  0  0  0  0  0  0  0  0  0  0
  -49.4254   58.6857   65.8736 C   0  0  0  0  0  0  0  0  0  0  0  0
  -49.4972   58.2356   63.0448 C   0  0  0  0  0  0  0  0  0  0  0  0
  -50.5450   59.0840   63.6984 C   0  0  0  0  0  0  0  0  0  0  0  0
  -51.6286   59.6978   62.8639 C   0  0  0  0  0  0  0  0  0  0  0  0
  -50.5133   59.2986   65.0220 C   0  0  0  0  0  0  0  0  0  0  0  0
  -44.5143   58.9554   65.2532 C   0  0  0  0  0  0  0  0  0  0  0  0
  -43.4671   59.3496   66.2877 C   0  0  0  0  0  0  0  0  0  0  0  0
  -42.1505   59.6504   65.6046 C   0  0  0  0  0  0  0  0  0  0  0  0
  -42.1454   60.2037   64.2134 C   0  0  0  0  0  0  0  0  0  0  0  0
  -40.9896   59.4348   66.2408 C   0  0  0  0  0  0  0  0  0  0  0  0
  -39.0859   60.9169   66.1379 O   0  0  0  0  0  0  0  0  0  0  0  0
  -39.6649   59.7336   65.5766 C   0  0  0  0  0  0  0  0  0  0  0  0
  -38.2373   61.0985   65.7045 H   0  0  0  0  0  0  0  0  0  0  0  0
  6  7  1  0  0  0
 15 16  1  0  0  0
  7  8  1  0  0  0
  7  9  2  0  0  0
  9  5  1  0  0  0
  5  4  1  0  0  0
  4  1  1  0  0  0
  1  2  1  0  0  0
  1  3  2  0  0  0
  3 10  1  0  0  0
 10 11  1  0  0  0
 11 12  1  0  0  0
 12 13  1  0  0  0
 12 14  2  0  0  0
 14 16  1  0  0  0
 15 17  1  0  0  0
M  END
> <minimizedAffinity>
-7.21959

> <CNNscore>
0.7544691563

> <CNNaffinity>
6.1179037094

> <CNN_VS>
4.6157698631

> <CNNaffinity_variance>
0.4468761384

$$$$



 17 16  0  0  0  0  0  0  0  0999 V2000
  -50.1081   57.9018   61.6465 C   0  0  0  0  0  0  0  0  0  0  0  0
  -51.4169   57.5074   61.0233 C   0  0  0  0  0  0  0  0  0  0  0  0
  -48.9841   57.8165   60.9212 C   0  0  0  0  0  0  0  0  0  0  0  0
  -50.0496   58.3971   63.0762 C   0  0  0  0  0  0  0  0  0  0  0  0
  -48.6080   58.4483   63.5714 C   0  0  0  0  0  0  0  0  0  0  0  0
  -46.0377   57.9705   64.7439 C   0  0  0  0  0  0  0  0  0  0  0  0
  -47.2831   57.5614   65.4692 C   0  0  0  0  0  0  0  0  0  0  0  0
  -47.1766   56.8986   66.8096 C   0  0  0  0  0  0  0  0  0  0  0  0
  -48.4880   57.7816   64.9225 C   0  0  0  0  0  0  0  0  0  0  0  0
  -49.0367   57.3283   59.4918 C   0  0  0  0  0  0  0  0  0  0  0  0
  -47.8680   56.3911   59.2131 C   0  0  0  0  0  0  0  0  0  0  0  0
  -46.9645   56.9883   58.1561 C   0  0  0  0  0  0  0  0  0  0  0  0
  -47.2818   56.7849   56.7071 C   0  0  0  0  0  0  0  0  0  0  0  0
  -45.8882   57.7068   58.5085 C   0  0  0  0  0  0  0  0  0  0  0  0
  -43.6139   58.2445   57.9004 O   0  0  0  0  0  0  0  0  0  0  0  0
  -44.9768   58.3151   57.4670 C   0  0  0  0  0  0  0  0  0  0  0  0
  -43.0391   58.6372   57.2249 H   0  0  0  0  0  0  0  0  0  0  0  0
  6  7  1  0  0  0
 15 16  1  0  0  0
  7  8  1  0  0  0
  7  9  2  0  0  0
  9  5  1  0  0  0
  5  4  1  0  0  0
  4  1  1  0  0  0
  1  2  1  0  0  0
  1  3  2  0  0  0
  3 10  1  0  0  0
 10 11  1  0  0  0
 11 12  1  0  0  0
 12 13  1  0  0  0
 12 14  2  0  0  0
 14 16  1  0  0  0
 15 17  1  0  0  0
M  END
> <minimizedAffinity>
-7.85165

> <CNNscore>
0.7351732254

> <CNNaffinity>
6.4629426003

> <CNN_VS>
4.7513823509

> <CNNaffinity_variance>
0.3746451735

$$$$



 17 16  0  0  0  0  0  0  0  0999 V2000
  -50.0344   57.4409   61.2951 C   0  0  0  0  0  0  0  0  0  0  0  0
  -51.5052   57.6877   61.1141 C   0  0  0  0  0  0  0  0  0  0  0  0
  -49.3774   58.0808   62.2726 C   0  0  0  0  0  0  0  0  0  0  0  0
  -49.2943   56.4771   60.3917 C   0  0  0  0  0  0  0  0  0  0  0  0
  -49.0744   57.0902   59.0126 C   0  0  0  0  0  0  0  0  0  0  0  0
  -47.5301   56.6817   56.6340 C   0  0  0  0  0  0  0  0  0  0  0  0
  -46.9544   57.4544   57.7813 C   0  0  0  0  0  0  0  0  0  0  0  0
  -45.5657   58.0097   57.6785 C   0  0  0  0  0  0  0  0  0  0  0  0
  -47.6737   57.6458   58.8971 C   0  0  0  0  0  0  0  0  0  0  0  0
  -50.1118   59.0396   63.1813 C   0  0  0  0  0  0  0  0  0  0  0  0
  -50.4062   58.3739   64.5200 C   0  0  0  0  0  0  0  0  0  0  0  0
  -49.2003   58.4792   65.4283 C   0  0  0  0  0  0  0  0  0  0  0  0
  -48.7372   59.8246   65.8943 C   0  0  0  0  0  0  0  0  0  0  0  0
  -48.5507   57.3755   65.8268 C   0  0  0  0  0  0  0  0  0  0  0  0
  -46.5191   56.3041   66.5724 O   0  0  0  0  0  0  0  0  0  0  0  0
  -47.3472   57.4605   66.7376 C   0  0  0  0  0  0  0  0  0  0  0  0
  -45.7510   56.3697   67.1611 H   0  0  0  0  0  0  0  0  0  0  0  0
  6  7  1  0  0  0
 15 16  1  0  0  0
  7  8  1  0  0  0
  7  9  2  0  0  0
  9  5  1  0  0  0
  5  4  1  0  0  0
  4  1  1  0  0  0
  1  2  1  0  0  0
  1  3  2  0  0  0
  3 10  1  0  0  0
 10 11  1  0  0  0
 11 12  1  0  0  0
 12 13  1  0  0  0
 12 14  2  0  0  0
 14 16  1  0  0  0
 15 17  1  0  0  0
M  END
> <minimizedAffinity>
-8.41310

> <CNNscore>
0.7240144610

> <CNNaffinity>
6.3274602890

> <CNN_VS>
4.5811729431

> <CNNaffinity_variance>
0.4826394022

$$$$



 17 16  0  0  0  0  0  0  0  0999 V2000
  -45.4699   58.5764   65.4756 C   0  0  0  0  0  0  0  0  0  0  0  0
  -45.6466   58.7008   66.9623 C   0  0  0  0  0  0  0  0  0  0  0  0
  -44.2720   58.8368   64.9334 C   0  0  0  0  0  0  0  0  0  0  0  0
  -46.6250   58.1566   64.5912 C   0  0  0  0  0  0  0  0  0  0  0  0
  -47.8099   59.1008   64.7660 C   0  0  0  0  0  0  0  0  0  0  0  0
  -50.5545   58.5611   65.3864 C   0  0  0  0  0  0  0  0  0  0  0  0
  -50.1073   58.6387   63.9586 C   0  0  0  0  0  0  0  0  0  0  0  0
  -51.1029   58.4299   62.8575 C   0  0  0  0  0  0  0  0  0  0  0  0
  -48.8228   58.8892   63.6644 C   0  0  0  0  0  0  0  0  0  0  0  0
  -43.1136   59.2507   65.8115 C   0  0  0  0  0  0  0  0  0  0  0  0
  -42.0821   58.1313   65.8830 C   0  0  0  0  0  0  0  0  0  0  0  0
  -40.7252   58.6479   65.4562 C   0  0  0  0  0  0  0  0  0  0  0  0
  -39.7083   57.6969   64.9057 C   0  0  0  0  0  0  0  0  0  0  0  0
  -40.4316   59.9527   65.5578 C   0  0  0  0  0  0  0  0  0  0  0  0
  -38.4234   61.1057   66.2425 O   0  0  0  0  0  0  0  0  0  0  0  0
  -39.0835   60.4879   65.1321 C   0  0  0  0  0  0  0  0  0  0  0  0
  -37.5605   61.4450   65.9577 H   0  0  0  0  0  0  0  0  0  0  0  0
  6  7  1  0  0  0
 15 16  1  0  0  0
  7  8  1  0  0  0
  7  9  2  0  0  0
  9  5  1  0  0  0
  5  4  1  0  0  0
  4  1  1  0  0  0
  1  2  1  0  0  0
  1  3  2  0  0  0
  3 10  1  0  0  0
 10 11  1  0  0  0
 11 12  1  0  0  0
 12 13  1  0  0  0
 12 14  2  0  0  0
 14 16  1  0  0  0
 15 17  1  0  0  0
M  END
> <minimizedAffinity>
-7.36386

> <CNNscore>
0.7176679373

> <CNNaffinity>
6.0233144760

> <CNN_VS>
4.3227396011

> <CNNaffinity_variance>
0.3000933528

$$$$
