


 25 25  0  0  0  0  0  0  0  0999 V2000
  -43.0945   59.3364   65.6127 C   0  0  0  0  0  0  0  0  0  0  0  0
  -43.2633   58.1062   66.5167 C   0  0  0  0  0  0  0  0  0  0  0  0
  -44.0328   57.0134   65.7875 C   0  0  0  0  0  0  0  0  0  0  0  0
  -45.1866   57.6410   65.0045 C   0  0  0  0  0  0  0  0  0  0  0  0
  -46.5032   57.4396   65.7545 C   0  0  0  0  0  0  0  0  0  0  0  0
  -48.3251   59.3445   66.1122 C   0  0  0  0  0  0  0  0  0  0  0  0
  -46.9094   58.7862   66.3559 C   0  0  0  0  0  0  0  0  0  0  0  0
  -49.3257   58.6519   65.1743 C   0  0  0  0  0  0  0  0  0  0  0  0
  -50.5895   59.5235   65.1355 C   0  0  0  0  0  0  0  0  0  0  0  0
  -51.2586   59.9369   63.8028 C   0  0  0  0  0  0  0  0  0  0  0  0
  -50.7139   59.4665   62.4400 C   0  0  0  0  0  0  0  0  0  0  0  0
  -51.0289   57.6348   60.7154 C   0  0  0  0  0  0  0  0  0  0  0  0
  -51.3488   58.1023   62.1373 C   0  0  0  0  0  0  0  0  0  0  0  0
  -41.7579   59.3416   64.8264 C   0  0  0  0  0  0  0  0  0  0  0  0
  -41.5151   60.6562   64.0478 C   0  0  0  0  0  0  0  0  0  0  0  0
  -39.8682   60.0278   60.7846 C   0  0  0  0  0  0  0  0  0  0  0  0
  -38.5174   60.2405   61.0900 C   0  0  0  0  0  0  0  0  0  0  0  0
  -40.8477   60.1660   61.7752 C   0  0  0  0  0  0  0  0  0  0  0  0
  -38.1722   60.5945   62.3942 C   0  0  0  0  0  0  0  0  0  0  0  0
  -39.1534   60.7380   63.3738 C   0  0  0  0  0  0  0  0  0  0  0  0
  -40.5098   60.5540   63.0767 C   0  0  0  0  0  0  0  0  0  0  0  0
  -36.8889   60.8150   62.7710 O   0  0  0  0  0  0  0  0  0  0  0  0
  -38.7696   61.0933   64.6341 O   0  0  0  0  0  0  0  0  0  0  0  0
  -36.1959   60.7301   62.1461 H   0  0  0  0  0  0  0  0  0  0  0  0
  -37.8616   61.2158   64.8302 H   0  0  0  0  0  0  0  0  0  0  0  0
 12 13  1  0  0  0
  9 10  2  0  0  0
  9  8  1  0  0  0
  6  7  2  0  0  0
  6  8  1  0  0  0
 10 11  1  0  0  0
  7  5  1  0  0  0
 16 17  2  0  0  0
 16 18  1  0  0  0
 17 19  1  0  0  0
 18 21  2  0  0  0
 13 11  1  0  0  0
  5  4  1  0  0  0
  4  3  1  0  0  0
  3  2  1  0  0  0
  2  1  1  0  0  0
  1 14  1  0  0  0
 14 15  1  0  0  0
 15 21  1  0  0  0
 19 20  2  0  0  0
 19 22  1  0  0  0
 20 21  1  0  0  0
 20 23  1  0  0  0
 22 24  1  0  0  0
 23 25  1  0  0  0
M  END
> <minimizedAffinity>
-8.42856

> <CNNscore>
0.8492488265

> <CNNaffinity>
6.6875853539

> <CNN_VS>
5.6794238091

> <CNNaffinity_variance>
0.3421131968

$$$$



 25 25  0  0  0  0  0  0  0  0999 V2000
  -43.9338   59.0907   67.0872 C   0  0  0  0  0  0  0  0  0  0  0  0
  -44.8841   59.0506   65.8812 C   0  0  0  0  0  0  0  0  0  0  0  0
  -46.3336   59.0562   66.3472 C   0  0  0  0  0  0  0  0  0  0  0  0
  -47.2156   59.6620   65.2550 C   0  0  0  0  0  0  0  0  0  0  0  0
  -47.9368   58.5552   64.4860 C   0  0  0  0  0  0  0  0  0  0  0  0
  -50.5893   58.6674   64.6527 C   0  0  0  0  0  0  0  0  0  0  0  0
  -49.2306   58.2318   65.2354 C   0  0  0  0  0  0  0  0  0  0  0  0
  -50.6955   59.5338   63.3884 C   0  0  0  0  0  0  0  0  0  0  0  0
  -51.5690   58.7669   62.3848 C   0  0  0  0  0  0  0  0  0  0  0  0
  -50.9550   57.8850   61.2712 C   0  0  0  0  0  0  0  0  0  0  0  0
  -49.4316   57.6988   61.1296 C   0  0  0  0  0  0  0  0  0  0  0  0
  -47.6530   57.2456   59.3803 C   0  0  0  0  0  0  0  0  0  0  0  0
  -49.1154   57.6227   59.6296 C   0  0  0  0  0  0  0  0  0  0  0  0
  -42.6353   58.2705   66.8731 C   0  0  0  0  0  0  0  0  0  0  0  0
  -42.0605   58.4036   65.4429 C   0  0  0  0  0  0  0  0  0  0  0  0
  -38.4103   57.8658   65.0658 C   0  0  0  0  0  0  0  0  0  0  0  0
  -37.8890   59.1150   65.4277 C   0  0  0  0  0  0  0  0  0  0  0  0
  -39.7927   57.6452   65.0793 C   0  0  0  0  0  0  0  0  0  0  0  0
  -38.7726   60.1294   65.7958 C   0  0  0  0  0  0  0  0  0  0  0  0
  -40.1484   59.9054   65.7995 C   0  0  0  0  0  0  0  0  0  0  0  0
  -40.6848   58.6698   65.4152 C   0  0  0  0  0  0  0  0  0  0  0  0
  -38.3487   61.3640   66.1614 O   0  0  0  0  0  0  0  0  0  0  0  0
  -40.9749   60.9297   66.1594 O   0  0  0  0  0  0  0  0  0  0  0  0
  -37.4326   61.5603   66.1738 H   0  0  0  0  0  0  0  0  0  0  0  0
  -40.6135   61.7552   66.4160 H   0  0  0  0  0  0  0  0  0  0  0  0
 12 13  1  0  0  0
  9 10  2  0  0  0
  9  8  1  0  0  0
  6  7  2  0  0  0
  6  8  1  0  0  0
 10 11  1  0  0  0
  7  5  1  0  0  0
 16 17  2  0  0  0
 16 18  1  0  0  0
 17 19  1  0  0  0
 18 21  2  0  0  0
 13 11  1  0  0  0
  5  4  1  0  0  0
  4  3  1  0  0  0
  3  2  1  0  0  0
  2  1  1  0  0  0
  1 14  1  0  0  0
 14 15  1  0  0  0
 15 21  1  0  0  0
 19 20  2  0  0  0
 19 22  1  0  0  0
 20 21  1  0  0  0
 20 23  1  0  0  0
 22 24  1  0  0  0
 23 25  1  0  0  0
M  END
> <minimizedAffinity>
-8.99418

> <CNNscore>
0.8352080584

> <CNNaffinity>
6.8270087242

> <CNN_VS>
5.7019724846

> <CNNaffinity_variance>
0.4246711135

$$$$



 25 25  0  0  0  0  0  0  0  0999 V2000
  -43.2052   59.1273   66.4508 C   0  0  0  0  0  0  0  0  0  0  0  0
  -43.4271   57.6609   66.8502 C   0  0  0  0  0  0  0  0  0  0  0  0
  -44.0736   56.8914   65.7065 C   0  0  0  0  0  0  0  0  0  0  0  0
  -45.1315   57.7697   65.0377 C   0  0  0  0  0  0  0  0  0  0  0  0
  -46.5116   57.4698   65.6224 C   0  0  0  0  0  0  0  0  0  0  0  0
  -48.4532   59.2099   66.1497 C   0  0  0  0  0  0  0  0  0  0  0  0
  -47.0005   58.7306   66.3374 C   0  0  0  0  0  0  0  0  0  0  0  0
  -49.4156   58.5319   65.1624 C   0  0  0  0  0  0  0  0  0  0  0  0
  -50.6942   59.3814   65.1193 C   0  0  0  0  0  0  0  0  0  0  0  0
  -51.3248   59.8449   63.7843 C   0  0  0  0  0  0  0  0  0  0  0  0
  -50.7240   59.4490   62.4213 C   0  0  0  0  0  0  0  0  0  0  0  0
  -50.8882   57.6722   60.6200 C   0  0  0  0  0  0  0  0  0  0  0  0
  -51.3821   58.1297   61.9946 C   0  0  0  0  0  0  0  0  0  0  0  0
  -41.7207   59.4653   66.1561 C   0  0  0  0  0  0  0  0  0  0  0  0
  -41.3848   59.4646   64.6459 C   0  0  0  0  0  0  0  0  0  0  0  0
  -38.1818   57.6149   64.9182 C   0  0  0  0  0  0  0  0  0  0  0  0
  -37.4143   58.2028   63.9039 C   0  0  0  0  0  0  0  0  0  0  0  0
  -39.4928   58.0459   65.1534 C   0  0  0  0  0  0  0  0  0  0  0  0
  -37.9831   59.2185   63.1357 C   0  0  0  0  0  0  0  0  0  0  0  0
  -39.2917   59.6374   63.3701 C   0  0  0  0  0  0  0  0  0  0  0  0
  -40.0792   59.0410   64.3632 C   0  0  0  0  0  0  0  0  0  0  0  0
  -37.3070   59.8395   62.1382 O   0  0  0  0  0  0  0  0  0  0  0  0
  -39.8089   60.6290   62.5884 O   0  0  0  0  0  0  0  0  0  0  0  0
  -36.4246   59.5908   61.9448 H   0  0  0  0  0  0  0  0  0  0  0  0
  -39.2801   61.0263   61.9247 H   0  0  0  0  0  0  0  0  0  0  0  0
 12 13  1  0  0  0
  9 10  2  0  0  0
  9  8  1  0  0  0
  6  7  2  0  0  0
  6  8  1  0  0  0
 10 11  1  0  0  0
  7  5  1  0  0  0
 16 17  2  0  0  0
 16 18  1  0  0  0
 17 19  1  0  0  0
 18 21  2  0  0  0
 13 11  1  0  0  0
  5  4  1  0  0  0
  4  3  1  0  0  0
  3  2  1  0  0  0
  2  1  1  0  0  0
  1 14  1  0  0  0
 14 15  1  0  0  0
 15 21  1  0  0  0
 19 20  2  0  0  0
 19 22  1  0  0  0
 20 21  1  0  0  0
 20 23  1  0  0  0
 22 24  1  0  0  0
 23 25  1  0  0  0
M  END
> <minimizedAffinity>
-8.15243

> <CNNscore>
0.7319902182

> <CNNaffinity>
6.5597701073

> <CNN_VS>
4.8016877174

> <CNNaffinity_variance>
0.2189093828

$$$$



 25 25  0  0  0  0  0  0  0  0999 V2000
  -42.8940   59.2251   65.4945 C   0  0  0  0  0  0  0  0  0  0  0  0
  -43.1442   58.0001   66.3865 C   0  0  0  0  0  0  0  0  0  0  0  0
  -44.0873   57.0244   65.6959 C   0  0  0  0  0  0  0  0  0  0  0  0
  -45.1274   57.8061   64.8927 C   0  0  0  0  0  0  0  0  0  0  0  0
  -46.4270   57.9251   65.6885 C   0  0  0  0  0  0  0  0  0  0  0  0
  -47.6689   60.2691   65.4904 C   0  0  0  0  0  0  0  0  0  0  0  0
  -46.5772   59.3841   66.1231 C   0  0  0  0  0  0  0  0  0  0  0  0
  -48.5517   59.7753   64.3338 C   0  0  0  0  0  0  0  0  0  0  0  0
  -49.8938   59.3412   64.9409 C   0  0  0  0  0  0  0  0  0  0  0  0
  -51.1693   59.1824   64.0791 C   0  0  0  0  0  0  0  0  0  0  0  0
  -51.1550   59.4168   62.5558 C   0  0  0  0  0  0  0  0  0  0  0  0
  -49.8434   57.5597   61.4336 C   0  0  0  0  0  0  0  0  0  0  0  0
  -51.2264   58.0414   61.8785 C   0  0  0  0  0  0  0  0  0  0  0  0
  -41.4442   59.3017   64.9494 C   0  0  0  0  0  0  0  0  0  0  0  0
  -40.3714   59.0660   66.0388 C   0  0  0  0  0  0  0  0  0  0  0  0
  -37.2923   57.6249   64.5564 C   0  0  0  0  0  0  0  0  0  0  0  0
  -36.4158   58.7179   64.5760 C   0  0  0  0  0  0  0  0  0  0  0  0
  -38.5969   57.7553   65.0472 C   0  0  0  0  0  0  0  0  0  0  0  0
  -36.8700   59.9328   65.0888 C   0  0  0  0  0  0  0  0  0  0  0  0
  -38.1727   60.0579   65.5687 C   0  0  0  0  0  0  0  0  0  0  0  0
  -39.0677   58.9810   65.5314 C   0  0  0  0  0  0  0  0  0  0  0  0
  -36.0843   61.0360   65.1455 O   0  0  0  0  0  0  0  0  0  0  0  0
  -38.5756   61.2678   66.0539 O   0  0  0  0  0  0  0  0  0  0  0  0
  -35.2013   60.9989   64.8343 H   0  0  0  0  0  0  0  0  0  0  0  0
  -37.9749   61.9866   66.0778 H   0  0  0  0  0  0  0  0  0  0  0  0
 12 13  1  0  0  0
  9 10  2  0  0  0
  9  8  1  0  0  0
  6  7  2  0  0  0
  6  8  1  0  0  0
 10 11  1  0  0  0
  7  5  1  0  0  0
 16 17  2  0  0  0
 16 18  1  0  0  0
 17 19  1  0  0  0
 18 21  2  0  0  0
 13 11  1  0  0  0
  5  4  1  0  0  0
  4  3  1  0  0  0
  3  2  1  0  0  0
  2  1  1  0  0  0
  1 14  1  0  0  0
 14 15  1  0  0  0
 15 21  1  0  0  0
 19 20  2  0  0  0
 19 22  1  0  0  0
 20 21  1  0  0  0
 20 23  1  0  0  0
 22 24  1  0  0  0
 23 25  1  0  0  0
M  END
> <minimizedAffinity>
-8.18594

> <CNNscore>
0.6591627598

> <CNNaffinity>
6.4393320084

> <CNN_VS>
4.2445678711

> <CNNaffinity_variance>
0.2729666829

$$$$



 25 25  0  0  0  0  0  0  0  0999 V2000
  -50.5873   57.5744   61.4256 C   0  0  0  0  0  0  0  0  0  0  0  0
  -51.5569   58.5525   62.1056 C   0  0  0  0  0  0  0  0  0  0  0  0
  -50.8069   59.7764   62.6132 C   0  0  0  0  0  0  0  0  0  0  0  0
  -51.2163   60.0592   64.0590 C   0  0  0  0  0  0  0  0  0  0  0  0
  -50.7595   58.9188   64.9685 C   0  0  0  0  0  0  0  0  0  0  0  0
  -48.2941   58.9112   65.9676 C   0  0  0  0  0  0  0  0  0  0  0  0
  -49.7248   59.4839   65.9432 C   0  0  0  0  0  0  0  0  0  0  0  0
  -47.8877   57.6933   65.1238 C   0  0  0  0  0  0  0  0  0  0  0  0
  -46.6530   58.0996   64.3059 C   0  0  0  0  0  0  0  0  0  0  0  0
  -45.2142   57.8079   64.7953 C   0  0  0  0  0  0  0  0  0  0  0  0
  -44.9409   57.0605   66.1153 C   0  0  0  0  0  0  0  0  0  0  0  0
  -42.6839   58.0197   66.7589 C   0  0  0  0  0  0  0  0  0  0  0  0
  -43.4292   56.8074   66.1955 C   0  0  0  0  0  0  0  0  0  0  0  0
  -49.4012   58.2788   60.7172 C   0  0  0  0  0  0  0  0  0  0  0  0
  -48.1086   57.4289   60.7047 C   0  0  0  0  0  0  0  0  0  0  0  0
  -46.6100   57.6393   57.3186 C   0  0  0  0  0  0  0  0  0  0  0  0
  -46.9235   56.3849   56.7787 C   0  0  0  0  0  0  0  0  0  0  0  0
  -47.0122   57.9708   58.6180 C   0  0  0  0  0  0  0  0  0  0  0  0
  -47.6378   55.4775   57.5609 C   0  0  0  0  0  0  0  0  0  0  0  0
  -48.0284   55.8112   58.8566 C   0  0  0  0  0  0  0  0  0  0  0  0
  -47.6994   57.0514   59.4185 C   0  0  0  0  0  0  0  0  0  0  0  0
  -47.9824   54.2458   57.1117 O   0  0  0  0  0  0  0  0  0  0  0  0
  -48.7188   54.8887   59.5875 O   0  0  0  0  0  0  0  0  0  0  0  0
  -47.7411   53.9781   56.2468 H   0  0  0  0  0  0  0  0  0  0  0  0
  -48.9376   54.0598   59.2094 H   0  0  0  0  0  0  0  0  0  0  0  0
 12 13  1  0  0  0
  9 10  2  0  0  0
  9  8  1  0  0  0
  6  7  2  0  0  0
  6  8  1  0  0  0
 10 11  1  0  0  0
  7  5  1  0  0  0
 16 17  2  0  0  0
 16 18  1  0  0  0
 17 19  1  0  0  0
 18 21  2  0  0  0
 13 11  1  0  0  0
  5  4  1  0  0  0
  4  3  1  0  0  0
  3  2  1  0  0  0
  2  1  1  0  0  0
  1 14  1  0  0  0
 14 15  1  0  0  0
 15 21  1  0  0  0
 19 20  2  0  0  0
 19 22  1  0  0  0
 20 21  1  0  0  0
 20 23  1  0  0  0
 22 24  1  0  0  0
 23 25  1  0  0  0
M  END
> <minimizedAffinity>
-9.11512

> <CNNscore>
0.6142104864

> <CNNaffinity>
7.2049417496

> <CNN_VS>
4.4253506660

> <CNNaffinity_variance>
0.5439915657

$$$$



 25 25  0  0  0  0  0  0  0  0999 V2000
  -44.4332   58.5069   66.0335 C   0  0  0  0  0  0  0  0  0  0  0  0
  -45.5301   59.2212   65.2299 C   0  0  0  0  0  0  0  0  0  0  0  0
  -46.7324   59.5141   66.1170 C   0  0  0  0  0  0  0  0  0  0  0  0
  -47.8911   58.5988   65.7202 C   0  0  0  0  0  0  0  0  0  0  0  0
  -48.1255   58.6697   64.2113 C   0  0  0  0  0  0  0  0  0  0  0  0
  -50.5074   59.4299   63.3031 C   0  0  0  0  0  0  0  0  0  0  0  0
  -49.1509   59.7741   63.9488 C   0  0  0  0  0  0  0  0  0  0  0  0
  -50.8334   58.0183   62.7915 C   0  0  0  0  0  0  0  0  0  0  0  0
  -51.2993   58.1600   61.3351 C   0  0  0  0  0  0  0  0  0  0  0  0
  -50.3436   57.9177   60.1423 C   0  0  0  0  0  0  0  0  0  0  0  0
  -48.8788   57.4852   60.3497 C   0  0  0  0  0  0  0  0  0  0  0  0
  -46.7018   57.2069   59.0802 C   0  0  0  0  0  0  0  0  0  0  0  0
  -48.2075   57.4592   58.9698 C   0  0  0  0  0  0  0  0  0  0  0  0
  -43.1684   59.3768   66.2534 C   0  0  0  0  0  0  0  0  0  0  0  0
  -41.8515   58.6223   65.9536 C   0  0  0  0  0  0  0  0  0  0  0  0
  -41.1311   60.5963   62.8975 C   0  0  0  0  0  0  0  0  0  0  0  0
  -39.9100   60.0533   62.4765 C   0  0  0  0  0  0  0  0  0  0  0  0
  -41.7626   60.1095   64.0482 C   0  0  0  0  0  0  0  0  0  0  0  0
  -39.3386   59.0257   63.2267 C   0  0  0  0  0  0  0  0  0  0  0  0
  -39.9688   58.5511   64.3759 C   0  0  0  0  0  0  0  0  0  0  0  0
  -41.1766   59.1020   64.8229 C   0  0  0  0  0  0  0  0  0  0  0  0
  -38.1617   58.4458   62.8856 O   0  0  0  0  0  0  0  0  0  0  0  0
  -39.3688   57.5498   65.0824 O   0  0  0  0  0  0  0  0  0  0  0  0
  -37.7024   58.7325   62.1209 H   0  0  0  0  0  0  0  0  0  0  0  0
  -38.5609   57.1830   64.7812 H   0  0  0  0  0  0  0  0  0  0  0  0
 12 13  1  0  0  0
  9 10  2  0  0  0
  9  8  1  0  0  0
  6  7  2  0  0  0
  6  8  1  0  0  0
 10 11  1  0  0  0
  7  5  1  0  0  0
 16 17  2  0  0  0
 16 18  1  0  0  0
 17 19  1  0  0  0
 18 21  2  0  0  0
 13 11  1  0  0  0
  5  4  1  0  0  0
  4  3  1  0  0  0
  3  2  1  0  0  0
  2  1  1  0  0  0
  1 14  1  0  0  0
 14 15  1  0  0  0
 15 21  1  0  0  0
 19 20  2  0  0  0
 19 22  1  0  0  0
 20 21  1  0  0  0
 20 23  1  0  0  0
 22 24  1  0  0  0
 23 25  1  0  0  0
M  END
> <minimizedAffinity>
-8.13695

> <CNNscore>
0.6122962236

> <CNNaffinity>
6.6854782104

> <CNN_VS>
4.0934929848

> <CNNaffinity_variance>
0.6134678125

$$$$



 25 25  0  0  0  0  0  0  0  0999 V2000
  -38.7827   58.5598   65.0222 C   0  0  0  0  0  0  0  0  0  0  0  0
  -39.8582   59.4611   65.6466 C   0  0  0  0  0  0  0  0  0  0  0  0
  -41.2309   58.8147   65.5207 C   0  0  0  0  0  0  0  0  0  0  0  0
  -42.2591   59.8780   65.1331 C   0  0  0  0  0  0  0  0  0  0  0  0
  -43.6321   59.2358   64.9357 C   0  0  0  0  0  0  0  0  0  0  0  0
  -45.6759   58.9566   66.6153 C   0  0  0  0  0  0  0  0  0  0  0  0
  -44.1684   58.8458   66.3142 C   0  0  0  0  0  0  0  0  0  0  0  0
  -46.6663   59.5671   65.6118 C   0  0  0  0  0  0  0  0  0  0  0  0
  -47.2682   58.4070   64.8054 C   0  0  0  0  0  0  0  0  0  0  0  0
  -48.7918   58.1388   64.7689 C   0  0  0  0  0  0  0  0  0  0  0  0
  -49.7941   59.0439   65.5117 C   0  0  0  0  0  0  0  0  0  0  0  0
  -50.8019   58.5881   63.2303 C   0  0  0  0  0  0  0  0  0  0  0  0
  -50.9109   59.4022   64.5218 C   0  0  0  0  0  0  0  0  0  0  0  0
  -39.2796   57.7859   63.7736 C   0  0  0  0  0  0  0  0  0  0  0  0
  -39.2013   58.6175   62.4713 C   0  0  0  0  0  0  0  0  0  0  0  0
  -36.9855   56.2026   60.7353 C   0  0  0  0  0  0  0  0  0  0  0  0
  -36.9854   56.6930   59.4228 C   0  0  0  0  0  0  0  0  0  0  0  0
  -37.7211   56.8527   61.7334 C   0  0  0  0  0  0  0  0  0  0  0  0
  -37.7329   57.8343   59.1332 C   0  0  0  0  0  0  0  0  0  0  0  0
  -38.4694   58.4722   60.1300 C   0  0  0  0  0  0  0  0  0  0  0  0
  -38.4995   57.9782   61.4404 C   0  0  0  0  0  0  0  0  0  0  0  0
  -37.7833   58.3730   57.8902 O   0  0  0  0  0  0  0  0  0  0  0  0
  -39.1920   59.5811   59.7985 O   0  0  0  0  0  0  0  0  0  0  0  0
  -37.3041   57.9780   57.1886 H   0  0  0  0  0  0  0  0  0  0  0  0
  -39.1701   59.9095   58.9212 H   0  0  0  0  0  0  0  0  0  0  0  0
 12 13  1  0  0  0
  9 10  2  0  0  0
  9  8  1  0  0  0
  6  7  2  0  0  0
  6  8  1  0  0  0
 10 11  1  0  0  0
  7  5  1  0  0  0
 16 17  2  0  0  0
 16 18  1  0  0  0
 17 19  1  0  0  0
 18 21  2  0  0  0
 13 11  1  0  0  0
  5  4  1  0  0  0
  4  3  1  0  0  0
  3  2  1  0  0  0
  2  1  1  0  0  0
  1 14  1  0  0  0
 14 15  1  0  0  0
 15 21  1  0  0  0
 19 20  2  0  0  0
 19 22  1  0  0  0
 20 21  1  0  0  0
 20 23  1  0  0  0
 22 24  1  0  0  0
 23 25  1  0  0  0
M  END
> <minimizedAffinity>
-8.45293

> <CNNscore>
0.5825384259

> <CNNaffinity>
6.2213511467

> <CNN_VS>
3.6241760254

> <CNNaffinity_variance>
0.2693913579

$$$$



 25 25  0  0  0  0  0  0  0  0999 V2000
  -42.2055   59.9239   64.4360 C   0  0  0  0  0  0  0  0  0  0  0  0
  -42.6920   59.0787   65.6226 C   0  0  0  0  0  0  0  0  0  0  0  0
  -44.0678   58.4957   65.3303 C   0  0  0  0  0  0  0  0  0  0  0  0
  -45.1114   59.6124   65.3708 C   0  0  0  0  0  0  0  0  0  0  0  0
  -46.3724   59.1293   66.0871 C   0  0  0  0  0  0  0  0  0  0  0  0
  -48.2382   57.9554   64.5982 C   0  0  0  0  0  0  0  0  0  0  0  0
  -46.8899   57.8972   65.3425 C   0  0  0  0  0  0  0  0  0  0  0  0
  -49.1600   59.1824   64.6730 C   0  0  0  0  0  0  0  0  0  0  0  0
  -50.5643   58.7210   64.2568 C   0  0  0  0  0  0  0  0  0  0  0  0
  -51.1130   58.9539   62.8287 C   0  0  0  0  0  0  0  0  0  0  0  0
  -50.2662   59.6309   61.7333 C   0  0  0  0  0  0  0  0  0  0  0  0
  -48.9058   57.6369   60.9574 C   0  0  0  0  0  0  0  0  0  0  0  0
  -50.0470   58.5990   60.6184 C   0  0  0  0  0  0  0  0  0  0  0  0
  -40.7277   59.6512   64.0531 C   0  0  0  0  0  0  0  0  0  0  0  0
  -40.3833   60.0858   62.6088 C   0  0  0  0  0  0  0  0  0  0  0  0
  -38.1892   57.1615   61.9844 C   0  0  0  0  0  0  0  0  0  0  0  0
  -37.8370   57.3386   60.6399 C   0  0  0  0  0  0  0  0  0  0  0  0
  -39.0300   58.0812   62.6225 C   0  0  0  0  0  0  0  0  0  0  0  0
  -38.3424   58.4428   59.9539 C   0  0  0  0  0  0  0  0  0  0  0  0
  -39.1854   59.3504   60.5931 C   0  0  0  0  0  0  0  0  0  0  0  0
  -39.5666   59.1719   61.9291 C   0  0  0  0  0  0  0  0  0  0  0  0
  -38.0476   58.6868   58.6534 O   0  0  0  0  0  0  0  0  0  0  0  0
  -39.6619   60.4116   59.8800 O   0  0  0  0  0  0  0  0  0  0  0  0
  -37.4848   58.1036   58.1832 H   0  0  0  0  0  0  0  0  0  0  0  0
  -39.4053   60.5288   58.9865 H   0  0  0  0  0  0  0  0  0  0  0  0
 12 13  1  0  0  0
  9 10  2  0  0  0
  9  8  1  0  0  0
  6  7  2  0  0  0
  6  8  1  0  0  0
 10 11  1  0  0  0
  7  5  1  0  0  0
 16 17  2  0  0  0
 16 18  1  0  0  0
 17 19  1  0  0  0
 18 21  2  0  0  0
 13 11  1  0  0  0
  5  4  1  0  0  0
  4  3  1  0  0  0
  3  2  1  0  0  0
  2  1  1  0  0  0
  1 14  1  0  0  0
 14 15  1  0  0  0
 15 21  1  0  0  0
 19 20  2  0  0  0
 19 22  1  0  0  0
 20 21  1  0  0  0
 20 23  1  0  0  0
 22 24  1  0  0  0
 23 25  1  0  0  0
M  END
> <minimizedAffinity>
-8.63645

> <CNNscore>
0.5551477671

> <CNNaffinity>
6.2561635971

> <CNN_VS>
3.4730951786

> <CNNaffinity_variance>
0.2120854408

$$$$



 25 25  0  0  0  0  0  0  0  0999 V2000
  -41.0473   59.2230   65.3256 C   0  0  0  0  0  0  0  0  0  0  0  0
  -42.5701   59.0443   65.4173 C   0  0  0  0  0  0  0  0  0  0  0  0
  -42.9232   58.0595   66.5235 C   0  0  0  0  0  0  0  0  0  0  0  0
  -43.6207   56.8421   65.9157 C   0  0  0  0  0  0  0  0  0  0  0  0
  -45.0517   57.2003   65.5152 C   0  0  0  0  0  0  0  0  0  0  0  0
  -47.4241   57.3387   66.7104 C   0  0  0  0  0  0  0  0  0  0  0  0
  -45.8858   57.2930   66.7941 C   0  0  0  0  0  0  0  0  0  0  0  0
  -48.1668   57.4180   65.3677 C   0  0  0  0  0  0  0  0  0  0  0  0
  -48.3655   58.9065   65.0465 C   0  0  0  0  0  0  0  0  0  0  0  0
  -49.0057   59.3795   63.7193 C   0  0  0  0  0  0  0  0  0  0  0  0
  -49.5125   58.3808   62.6605 C   0  0  0  0  0  0  0  0  0  0  0  0
  -51.6282   59.7596   62.8866 C   0  0  0  0  0  0  0  0  0  0  0  0
  -51.0443   58.3511   62.7527 C   0  0  0  0  0  0  0  0  0  0  0  0
  -40.2707   57.8808   65.3234 C   0  0  0  0  0  0  0  0  0  0  0  0
  -38.7745   58.0441   64.9656 C   0  0  0  0  0  0  0  0  0  0  0  0
  -38.5941   58.1334   61.2622 C   0  0  0  0  0  0  0  0  0  0  0  0
  -38.0606   59.4067   61.0233 C   0  0  0  0  0  0  0  0  0  0  0  0
  -38.8213   57.6959   62.5726 C   0  0  0  0  0  0  0  0  0  0  0  0
  -37.7659   60.2258   62.1131 C   0  0  0  0  0  0  0  0  0  0  0  0
  -38.0020   59.7870   63.4149 C   0  0  0  0  0  0  0  0  0  0  0  0
  -38.5590   58.5268   63.6676 C   0  0  0  0  0  0  0  0  0  0  0  0
  -37.2456   61.4690   61.9672 O   0  0  0  0  0  0  0  0  0  0  0  0
  -37.7055   60.6256   64.4496 O   0  0  0  0  0  0  0  0  0  0  0  0
  -37.0704   61.8060   61.1106 H   0  0  0  0  0  0  0  0  0  0  0  0
  -37.3329   61.4680   64.2779 H   0  0  0  0  0  0  0  0  0  0  0  0
 12 13  1  0  0  0
  9 10  2  0  0  0
  9  8  1  0  0  0
  6  7  2  0  0  0
  6  8  1  0  0  0
 10 11  1  0  0  0
  7  5  1  0  0  0
 16 17  2  0  0  0
 16 18  1  0  0  0
 17 19  1  0  0  0
 18 21  2  0  0  0
 13 11  1  0  0  0
  5  4  1  0  0  0
  4  3  1  0  0  0
  3  2  1  0  0  0
  2  1  1  0  0  0
  1 14  1  0  0  0
 14 15  1  0  0  0
 15 21  1  0  0  0
 19 20  2  0  0  0
 19 22  1  0  0  0
 20 21  1  0  0  0
 20 23  1  0  0  0
 22 24  1  0  0  0
 23 25  1  0  0  0
M  END
> <minimizedAffinity>
-7.97917

> <CNNscore>
0.5295701623

> <CNNaffinity>
6.3638210297

> <CNN_VS>
3.3700897694

> <CNNaffinity_variance>
0.4332995415

$$$$
