


 25 25  0  0  0  0  0  0  0  0999 V2000
  -44.2830   58.7496   64.8800 C   0  0  0  0  0  0  0  0  0  0  0  0
  -45.7507   59.1088   65.1551 C   0  0  0  0  0  0  0  0  0  0  0  0
  -46.6665   57.9766   64.7104 C   0  0  0  0  0  0  0  0  0  0  0  0
  -48.1045   58.2960   65.1204 C   0  0  0  0  0  0  0  0  0  0  0  0
  -48.7189   59.3013   64.1466 C   0  0  0  0  0  0  0  0  0  0  0  0
  -50.1886   57.9702   62.3733 C   0  0  0  0  0  0  0  0  0  0  0  0
  -50.0734   58.7497   63.6979 C   0  0  0  0  0  0  0  0  0  0  0  0
  -49.0035   57.8236   61.4064 C   0  0  0  0  0  0  0  0  0  0  0  0
  -49.5744   57.8545   59.9812 C   0  0  0  0  0  0  0  0  0  0  0  0
  -49.1231   56.8475   58.8962 C   0  0  0  0  0  0  0  0  0  0  0  0
  -48.1007   55.7338   59.1963 C   0  0  0  0  0  0  0  0  0  0  0  0
  -46.9044   57.1019   57.4283 C   0  0  0  0  0  0  0  0  0  0  0  0
  -47.0930   55.7111   58.0389 C   0  0  0  0  0  0  0  0  0  0  0  0
  -43.3638   59.9904   64.7367 C   0  0  0  0  0  0  0  0  0  0  0  0
  -42.3670   60.1478   65.9093 C   0  0  0  0  0  0  0  0  0  0  0  0
  -39.1361   58.8117   64.6718 C   0  0  0  0  0  0  0  0  0  0  0  0
  -38.2953   59.9275   64.7778 C   0  0  0  0  0  0  0  0  0  0  0  0
  -40.4801   58.8998   65.0535 C   0  0  0  0  0  0  0  0  0  0  0  0
  -38.8245   61.1222   65.2656 C   0  0  0  0  0  0  0  0  0  0  0  0
  -40.1656   61.2052   65.6365 C   0  0  0  0  0  0  0  0  0  0  0  0
  -41.0238   60.1053   65.5115 C   0  0  0  0  0  0  0  0  0  0  0  0
  -38.0775   62.2453   65.4011 O   0  0  0  0  0  0  0  0  0  0  0  0
  -40.6412   62.3968   66.1010 O   0  0  0  0  0  0  0  0  0  0  0  0
  -37.1710   62.2364   65.1642 H   0  0  0  0  0  0  0  0  0  0  0  0
  -40.0650   63.1310   66.1837 H   0  0  0  0  0  0  0  0  0  0  0  0
 12 13  1  0  0  0
  9 10  2  0  0  0
  9  8  1  0  0  0
  6  7  2  0  0  0
  6  8  1  0  0  0
 10 11  1  0  0  0
  7  5  1  0  0  0
 16 17  2  0  0  0
 16 18  1  0  0  0
 17 19  1  0  0  0
 18 21  2  0  0  0
 13 11  1  0  0  0
  5  4  1  0  0  0
  4  3  1  0  0  0
  3  2  1  0  0  0
  2  1  1  0  0  0
  1 14  1  0  0  0
 14 15  1  0  0  0
 15 21  1  0  0  0
 19 20  2  0  0  0
 19 22  1  0  0  0
 20 21  1  0  0  0
 20 23  1  0  0  0
 22 24  1  0  0  0
 23 25  1  0  0  0
M  END
> <minimizedAffinity>
-8.75836

> <CNNscore>
0.8963416815

> <CNNaffinity>
7.1113662720

> <CNN_VS>
6.3742141724

> <CNNaffinity_variance>
0.7730144262

$$$$



 25 25  0  0  0  0  0  0  0  0999 V2000
  -46.0716   58.1805   65.6851 C   0  0  0  0  0  0  0  0  0  0  0  0
  -47.1372   59.1812   66.1564 C   0  0  0  0  0  0  0  0  0  0  0  0
  -48.2843   59.2447   65.1574 C   0  0  0  0  0  0  0  0  0  0  0  0
  -48.3594   57.9267   64.3860 C   0  0  0  0  0  0  0  0  0  0  0  0
  -48.6425   58.1965   62.9083 C   0  0  0  0  0  0  0  0  0  0  0  0
  -50.6231   57.5233   61.2650 C   0  0  0  0  0  0  0  0  0  0  0  0
  -50.1313   57.9439   62.6639 C   0  0  0  0  0  0  0  0  0  0  0  0
  -49.6813   57.4624   60.0526 C   0  0  0  0  0  0  0  0  0  0  0  0
  -49.2057   56.0083   59.9203 C   0  0  0  0  0  0  0  0  0  0  0  0
  -47.9110   55.6363   59.1587 C   0  0  0  0  0  0  0  0  0  0  0  0
  -47.0070   56.7092   58.5205 C   0  0  0  0  0  0  0  0  0  0  0  0
  -47.7356   55.2254   56.5980 C   0  0  0  0  0  0  0  0  0  0  0  0
  -46.7290   56.2754   57.0748 C   0  0  0  0  0  0  0  0  0  0  0  0
  -44.8725   58.8530   64.9677 C   0  0  0  0  0  0  0  0  0  0  0  0
  -43.8056   59.3979   65.9465 C   0  0  0  0  0  0  0  0  0  0  0  0
  -41.7601   60.9142   63.2498 C   0  0  0  0  0  0  0  0  0  0  0  0
  -40.6378   61.3720   63.9527 C   0  0  0  0  0  0  0  0  0  0  0  0
  -42.7983   60.2598   63.9235 C   0  0  0  0  0  0  0  0  0  0  0  0
  -40.5795   61.1661   65.3309 C   0  0  0  0  0  0  0  0  0  0  0  0
  -41.6203   60.5208   65.9966 C   0  0  0  0  0  0  0  0  0  0  0  0
  -42.7598   60.0810   65.3110 C   0  0  0  0  0  0  0  0  0  0  0  0
  -39.5283   61.5760   66.0823 O   0  0  0  0  0  0  0  0  0  0  0  0
  -41.5232   60.3484   67.3467 O   0  0  0  0  0  0  0  0  0  0  0  0
  -38.8057   62.0142   65.6776 H   0  0  0  0  0  0  0  0  0  0  0  0
  -40.7599   60.6435   67.8030 H   0  0  0  0  0  0  0  0  0  0  0  0
 12 13  1  0  0  0
  9 10  2  0  0  0
  9  8  1  0  0  0
  6  7  2  0  0  0
  6  8  1  0  0  0
 10 11  1  0  0  0
  7  5  1  0  0  0
 16 17  2  0  0  0
 16 18  1  0  0  0
 17 19  1  0  0  0
 18 21  2  0  0  0
 13 11  1  0  0  0
  5  4  1  0  0  0
  4  3  1  0  0  0
  3  2  1  0  0  0
  2  1  1  0  0  0
  1 14  1  0  0  0
 14 15  1  0  0  0
 15 21  1  0  0  0
 19 20  2  0  0  0
 19 22  1  0  0  0
 20 21  1  0  0  0
 20 23  1  0  0  0
 22 24  1  0  0  0
 23 25  1  0  0  0
M  END
> <minimizedAffinity>
-8.31988

> <CNNscore>
0.8417410254

> <CNNaffinity>
7.0835218430

> <CNN_VS>
5.9624910355

> <CNNaffinity_variance>
0.6513592601

$$$$



 25 25  0  0  0  0  0  0  0  0999 V2000
  -42.7207   59.4555   65.1114 C   0  0  0  0  0  0  0  0  0  0  0  0
  -43.9856   58.8367   65.7245 C   0  0  0  0  0  0  0  0  0  0  0  0
  -45.2194   59.6220   65.3011 C   0  0  0  0  0  0  0  0  0  0  0  0
  -46.4737   58.9075   65.8054 C   0  0  0  0  0  0  0  0  0  0  0  0
  -47.1967   58.2285   64.6423 C   0  0  0  0  0  0  0  0  0  0  0  0
  -49.7538   58.0946   63.9217 C   0  0  0  0  0  0  0  0  0  0  0  0
  -48.6733   58.1001   65.0207 C   0  0  0  0  0  0  0  0  0  0  0  0
  -49.4156   58.3381   62.4429 C   0  0  0  0  0  0  0  0  0  0  0  0
  -50.6012   57.8208   61.6152 C   0  0  0  0  0  0  0  0  0  0  0  0
  -50.4253   57.3028   60.1676 C   0  0  0  0  0  0  0  0  0  0  0  0
  -49.0432   57.2439   59.4880 C   0  0  0  0  0  0  0  0  0  0  0  0
  -47.3272   55.5612   58.6805 C   0  0  0  0  0  0  0  0  0  0  0  0
  -48.5541   55.7912   59.5662 C   0  0  0  0  0  0  0  0  0  0  0  0
  -41.4339   58.6424   65.4077 C   0  0  0  0  0  0  0  0  0  0  0  0
  -40.1382   59.4704   65.2372 C   0  0  0  0  0  0  0  0  0  0  0  0
  -38.0207   57.4683   62.9430 C   0  0  0  0  0  0  0  0  0  0  0  0
  -37.7962   58.3654   61.8903 C   0  0  0  0  0  0  0  0  0  0  0  0
  -38.7951   57.8503   64.0450 C   0  0  0  0  0  0  0  0  0  0  0  0
  -38.3609   59.6386   61.9621 C   0  0  0  0  0  0  0  0  0  0  0  0
  -39.1374   60.0098   63.0586 C   0  0  0  0  0  0  0  0  0  0  0  0
  -39.3916   59.1147   64.1057 C   0  0  0  0  0  0  0  0  0  0  0  0
  -38.1892   60.5650   60.9874 O   0  0  0  0  0  0  0  0  0  0  0  0
  -39.6761   61.2632   63.0819 O   0  0  0  0  0  0  0  0  0  0  0  0
  -37.6749   60.3599   60.2315 H   0  0  0  0  0  0  0  0  0  0  0  0
  -39.5045   61.8600   62.3802 H   0  0  0  0  0  0  0  0  0  0  0  0
 12 13  1  0  0  0
  9 10  2  0  0  0
  9  8  1  0  0  0
  6  7  2  0  0  0
  6  8  1  0  0  0
 10 11  1  0  0  0
  7  5  1  0  0  0
 16 17  2  0  0  0
 16 18  1  0  0  0
 17 19  1  0  0  0
 18 21  2  0  0  0
 13 11  1  0  0  0
  5  4  1  0  0  0
  4  3  1  0  0  0
  3  2  1  0  0  0
  2  1  1  0  0  0
  1 14  1  0  0  0
 14 15  1  0  0  0
 15 21  1  0  0  0
 19 20  2  0  0  0
 19 22  1  0  0  0
 20 21  1  0  0  0
 20 23  1  0  0  0
 22 24  1  0  0  0
 23 25  1  0  0  0
M  END
> <minimizedAffinity>
-8.95939

> <CNNscore>
0.8304197192

> <CNNaffinity>
6.9174361229

> <CNN_VS>
5.7443752289

> <CNNaffinity_variance>
0.6714428663

$$$$



 25 25  0  0  0  0  0  0  0  0999 V2000
  -44.8324   59.4413   66.1851 C   0  0  0  0  0  0  0  0  0  0  0  0
  -46.0460   59.5635   65.2516 C   0  0  0  0  0  0  0  0  0  0  0  0
  -47.0035   58.4002   65.4711 C   0  0  0  0  0  0  0  0  0  0  0  0
  -47.8790   58.2223   64.2302 C   0  0  0  0  0  0  0  0  0  0  0  0
  -49.3311   57.9780   64.6406 C   0  0  0  0  0  0  0  0  0  0  0  0
  -50.8797   60.1161   64.3144 C   0  0  0  0  0  0  0  0  0  0  0  0
  -49.8950   59.2971   65.1717 C   0  0  0  0  0  0  0  0  0  0  0  0
  -51.2333   59.7187   62.8730 C   0  0  0  0  0  0  0  0  0  0  0  0
  -50.1405   60.2968   61.9620 C   0  0  0  0  0  0  0  0  0  0  0  0
  -49.5760   59.5065   60.7572 C   0  0  0  0  0  0  0  0  0  0  0  0
  -50.1053   58.1081   60.3829 C   0  0  0  0  0  0  0  0  0  0  0  0
  -49.0544   55.8345   59.9898 C   0  0  0  0  0  0  0  0  0  0  0  0
  -49.0789   57.0803   60.8787 C   0  0  0  0  0  0  0  0  0  0  0  0
  -43.4764   59.4450   65.4327 C   0  0  0  0  0  0  0  0  0  0  0  0
  -42.3252   60.0692   66.2564 C   0  0  0  0  0  0  0  0  0  0  0  0
  -39.3746   58.6554   64.5098 C   0  0  0  0  0  0  0  0  0  0  0  0
  -38.5336   59.7709   64.4011 C   0  0  0  0  0  0  0  0  0  0  0  0
  -40.6248   58.7697   65.1295 C   0  0  0  0  0  0  0  0  0  0  0  0
  -38.9682   60.9914   64.9175 C   0  0  0  0  0  0  0  0  0  0  0  0
  -40.2174   61.1000   65.5263 C   0  0  0  0  0  0  0  0  0  0  0  0
  -41.0791   59.9996   65.6188 C   0  0  0  0  0  0  0  0  0  0  0  0
  -38.2139   62.1160   64.8547 O   0  0  0  0  0  0  0  0  0  0  0  0
  -40.6036   62.3160   66.0100 O   0  0  0  0  0  0  0  0  0  0  0  0
  -37.3671   62.0905   64.4544 H   0  0  0  0  0  0  0  0  0  0  0  0
  -40.0252   63.0505   65.9469 H   0  0  0  0  0  0  0  0  0  0  0  0
 12 13  1  0  0  0
  9 10  2  0  0  0
  9  8  1  0  0  0
  6  7  2  0  0  0
  6  8  1  0  0  0
 10 11  1  0  0  0
  7  5  1  0  0  0
 16 17  2  0  0  0
 16 18  1  0  0  0
 17 19  1  0  0  0
 18 21  2  0  0  0
 13 11  1  0  0  0
  5  4  1  0  0  0
  4  3  1  0  0  0
  3  2  1  0  0  0
  2  1  1  0  0  0
  1 14  1  0  0  0
 14 15  1  0  0  0
 15 21  1  0  0  0
 19 20  2  0  0  0
 19 22  1  0  0  0
 20 21  1  0  0  0
 20 23  1  0  0  0
 22 24  1  0  0  0
 23 25  1  0  0  0
M  END
> <minimizedAffinity>
-8.76682

> <CNNscore>
0.7153002620

> <CNNaffinity>
6.5217962265

> <CNN_VS>
4.6650424004

> <CNNaffinity_variance>
0.1677571237

$$$$



 25 25  0  0  0  0  0  0  0  0999 V2000
  -42.1864   58.6124   66.1339 C   0  0  0  0  0  0  0  0  0  0  0  0
  -43.0835   59.8574   66.0680 C   0  0  0  0  0  0  0  0  0  0  0  0
  -44.3750   59.5423   65.3259 C   0  0  0  0  0  0  0  0  0  0  0  0
  -44.8956   58.1752   65.7708 C   0  0  0  0  0  0  0  0  0  0  0  0
  -45.9942   57.6957   64.8223 C   0  0  0  0  0  0  0  0  0  0  0  0
  -48.6501   57.8416   64.7869 C   0  0  0  0  0  0  0  0  0  0  0  0
  -47.3255   57.7727   65.5718 C   0  0  0  0  0  0  0  0  0  0  0  0
  -48.6864   57.9599   63.2554 C   0  0  0  0  0  0  0  0  0  0  0  0
  -49.8358   58.9148   62.9014 C   0  0  0  0  0  0  0  0  0  0  0  0
  -50.8785   58.5723   61.8105 C   0  0  0  0  0  0  0  0  0  0  0  0
  -50.8422   57.2363   61.0428 C   0  0  0  0  0  0  0  0  0  0  0  0
  -49.0189   57.4352   59.2922 C   0  0  0  0  0  0  0  0  0  0  0  0
  -50.5178   57.5570   59.5773 C   0  0  0  0  0  0  0  0  0  0  0  0
  -40.9657   58.6842   65.1802 C   0  0  0  0  0  0  0  0  0  0  0  0
  -40.8896   60.0109   64.3881 C   0  0  0  0  0  0  0  0  0  0  0  0
  -37.5082   60.2001   62.8763 C   0  0  0  0  0  0  0  0  0  0  0  0
  -36.8955   61.1968   63.6474 C   0  0  0  0  0  0  0  0  0  0  0  0
  -38.8293   59.8166   63.1361 C   0  0  0  0  0  0  0  0  0  0  0  0
  -37.6276   61.7977   64.6712 C   0  0  0  0  0  0  0  0  0  0  0  0
  -38.9452   61.4165   64.9195 C   0  0  0  0  0  0  0  0  0  0  0  0
  -39.5787   60.4402   64.1401 C   0  0  0  0  0  0  0  0  0  0  0  0
  -37.1073   62.7669   65.4634 O   0  0  0  0  0  0  0  0  0  0  0  0
  -39.6250   62.0375   65.9265 O   0  0  0  0  0  0  0  0  0  0  0  0
  -36.2253   63.0551   65.3331 H   0  0  0  0  0  0  0  0  0  0  0  0
  -39.1989   62.6903   66.4464 H   0  0  0  0  0  0  0  0  0  0  0  0
 12 13  1  0  0  0
  9 10  2  0  0  0
  9  8  1  0  0  0
  6  7  2  0  0  0
  6  8  1  0  0  0
 10 11  1  0  0  0
  7  5  1  0  0  0
 16 17  2  0  0  0
 16 18  1  0  0  0
 17 19  1  0  0  0
 18 21  2  0  0  0
 13 11  1  0  0  0
  5  4  1  0  0  0
  4  3  1  0  0  0
  3  2  1  0  0  0
  2  1  1  0  0  0
  1 14  1  0  0  0
 14 15  1  0  0  0
 15 21  1  0  0  0
 19 20  2  0  0  0
 19 22  1  0  0  0
 20 21  1  0  0  0
 20 23  1  0  0  0
 22 24  1  0  0  0
 23 25  1  0  0  0
M  END
> <minimizedAffinity>
-8.32479

> <CNNscore>
0.6549009681

> <CNNaffinity>
6.4596633911

> <CNN_VS>
4.2304396629

> <CNNaffinity_variance>
0.2872903049

$$$$



 25 25  0  0  0  0  0  0  0  0999 V2000
  -42.0242   59.0037   65.8044 C   0  0  0  0  0  0  0  0  0  0  0  0
  -43.2117   59.6705   65.0943 C   0  0  0  0  0  0  0  0  0  0  0  0
  -44.4534   58.7962   65.2020 C   0  0  0  0  0  0  0  0  0  0  0  0
  -45.6965   59.6847   65.2594 C   0  0  0  0  0  0  0  0  0  0  0  0
  -46.9548   58.8451   65.0397 C   0  0  0  0  0  0  0  0  0  0  0  0
  -49.5490   59.1627   65.5352 C   0  0  0  0  0  0  0  0  0  0  0  0
  -48.0761   59.4533   65.8839 C   0  0  0  0  0  0  0  0  0  0  0  0
  -49.9502   58.3714   64.2808 C   0  0  0  0  0  0  0  0  0  0  0  0
  -50.1656   59.3898   63.1517 C   0  0  0  0  0  0  0  0  0  0  0  0
  -50.5568   58.9539   61.7194 C   0  0  0  0  0  0  0  0  0  0  0  0
  -50.7873   57.4742   61.3549 C   0  0  0  0  0  0  0  0  0  0  0  0
  -49.6910   57.2985   59.0755 C   0  0  0  0  0  0  0  0  0  0  0  0
  -49.5575   56.9972   60.5702 C   0  0  0  0  0  0  0  0  0  0  0  0
  -40.6625   59.6727   65.4832 C   0  0  0  0  0  0  0  0  0  0  0  0
  -39.6572   58.7116   64.8055 C   0  0  0  0  0  0  0  0  0  0  0  0
  -39.4099   60.7573   61.7218 C   0  0  0  0  0  0  0  0  0  0  0  0
  -38.5054   60.0174   60.9486 C   0  0  0  0  0  0  0  0  0  0  0  0
  -39.7836   60.3100   62.9947 C   0  0  0  0  0  0  0  0  0  0  0  0
  -37.9856   58.8343   61.4733 C   0  0  0  0  0  0  0  0  0  0  0  0
  -38.3559   58.3988   62.7446 C   0  0  0  0  0  0  0  0  0  0  0  0
  -39.2389   59.1414   63.5389 C   0  0  0  0  0  0  0  0  0  0  0  0
  -37.1082   58.0603   60.7886 O   0  0  0  0  0  0  0  0  0  0  0  0
  -37.8158   57.2393   63.2198 O   0  0  0  0  0  0  0  0  0  0  0  0
  -36.8308   58.3136   59.9302 H   0  0  0  0  0  0  0  0  0  0  0  0
  -37.2254   56.7444   62.6864 H   0  0  0  0  0  0  0  0  0  0  0  0
 12 13  1  0  0  0
  9 10  2  0  0  0
  9  8  1  0  0  0
  6  7  2  0  0  0
  6  8  1  0  0  0
 10 11  1  0  0  0
  7  5  1  0  0  0
 16 17  2  0  0  0
 16 18  1  0  0  0
 17 19  1  0  0  0
 18 21  2  0  0  0
 13 11  1  0  0  0
  5  4  1  0  0  0
  4  3  1  0  0  0
  3  2  1  0  0  0
  2  1  1  0  0  0
  1 14  1  0  0  0
 14 15  1  0  0  0
 15 21  1  0  0  0
 19 20  2  0  0  0
 19 22  1  0  0  0
 20 21  1  0  0  0
 20 23  1  0  0  0
 22 24  1  0  0  0
 23 25  1  0  0  0
M  END
> <minimizedAffinity>
-8.31728

> <CNNscore>
0.6439062953

> <CNNaffinity>
6.4793272018

> <CNN_VS>
4.1720795631

> <CNNaffinity_variance>
0.8806794882

$$$$



 25 25  0  0  0  0  0  0  0  0999 V2000
  -41.1848   60.5212   66.0290 C   0  0  0  0  0  0  0  0  0  0  0  0
  -42.5542   59.9302   66.3954 C   0  0  0  0  0  0  0  0  0  0  0  0
  -42.8069   58.6501   65.6108 C   0  0  0  0  0  0  0  0  0  0  0  0
  -43.9853   58.8619   64.6597 C   0  0  0  0  0  0  0  0  0  0  0  0
  -45.0632   59.7081   65.3369 C   0  0  0  0  0  0  0  0  0  0  0  0
  -47.4808   58.6240   65.5734 C   0  0  0  0  0  0  0  0  0  0  0  0
  -46.0225   58.7567   66.0542 C   0  0  0  0  0  0  0  0  0  0  0  0
  -48.0573   59.5115   64.4596 C   0  0  0  0  0  0  0  0  0  0  0  0
  -49.5041   59.8471   64.8500 C   0  0  0  0  0  0  0  0  0  0  0  0
  -50.6537   59.8435   63.8140 C   0  0  0  0  0  0  0  0  0  0  0  0
  -50.4164   59.4677   62.3382 C   0  0  0  0  0  0  0  0  0  0  0  0
  -50.7614   57.4926   60.7862 C   0  0  0  0  0  0  0  0  0  0  0  0
  -50.5220   57.9403   62.2302 C   0  0  0  0  0  0  0  0  0  0  0  0
  -41.2229   61.4231   64.7681 C   0  0  0  0  0  0  0  0  0  0  0  0
  -40.3577   60.8809   63.6059 C   0  0  0  0  0  0  0  0  0  0  0  0
  -38.2158   57.9682   64.4327 C   0  0  0  0  0  0  0  0  0  0  0  0
  -37.0745   58.5828   64.9647 C   0  0  0  0  0  0  0  0  0  0  0  0
  -39.2951   58.7425   63.9906 C   0  0  0  0  0  0  0  0  0  0  0  0
  -37.0358   59.9749   65.0402 C   0  0  0  0  0  0  0  0  0  0  0  0
  -38.1108   60.7401   64.5909 C   0  0  0  0  0  0  0  0  0  0  0  0
  -39.2471   60.1405   64.0331 C   0  0  0  0  0  0  0  0  0  0  0  0
  -35.9706   60.6453   65.5437 O   0  0  0  0  0  0  0  0  0  0  0  0
  -38.0252   62.0991   64.6774 O   0  0  0  0  0  0  0  0  0  0  0  0
  -35.2251   60.1724   65.8576 H   0  0  0  0  0  0  0  0  0  0  0  0
  -37.2639   62.4978   65.0510 H   0  0  0  0  0  0  0  0  0  0  0  0
 12 13  1  0  0  0
  9 10  2  0  0  0
  9  8  1  0  0  0
  6  7  2  0  0  0
  6  8  1  0  0  0
 10 11  1  0  0  0
  7  5  1  0  0  0
 16 17  2  0  0  0
 16 18  1  0  0  0
 17 19  1  0  0  0
 18 21  2  0  0  0
 13 11  1  0  0  0
  5  4  1  0  0  0
  4  3  1  0  0  0
  3  2  1  0  0  0
  2  1  1  0  0  0
  1 14  1  0  0  0
 14 15  1  0  0  0
 15 21  1  0  0  0
 19 20  2  0  0  0
 19 22  1  0  0  0
 20 21  1  0  0  0
 20 23  1  0  0  0
 22 24  1  0  0  0
 23 25  1  0  0  0
M  END
> <minimizedAffinity>
-7.82844

> <CNNscore>
0.6113075018

> <CNNaffinity>
6.5603446960

> <CNN_VS>
4.0103878975

> <CNNaffinity_variance>
0.4930121899

$$$$



 25 25  0  0  0  0  0  0  0  0999 V2000
  -40.8638   58.8639   65.2980 C   0  0  0  0  0  0  0  0  0  0  0  0
  -41.9959   59.7018   65.9107 C   0  0  0  0  0  0  0  0  0  0  0  0
  -43.1356   59.8635   64.9141 C   0  0  0  0  0  0  0  0  0  0  0  0
  -44.4370   59.3693   65.5465 C   0  0  0  0  0  0  0  0  0  0  0  0
  -44.9172   58.1012   64.8409 C   0  0  0  0  0  0  0  0  0  0  0  0
  -47.4456   57.4379   65.3341 C   0  0  0  0  0  0  0  0  0  0  0  0
  -45.9587   57.4320   65.7395 C   0  0  0  0  0  0  0  0  0  0  0  0
  -47.9535   58.2054   64.1038 C   0  0  0  0  0  0  0  0  0  0  0  0
  -48.0561   59.6849   64.5026 C   0  0  0  0  0  0  0  0  0  0  0  0
  -48.7913   60.7218   63.6201 C   0  0  0  0  0  0  0  0  0  0  0  0
  -49.4929   60.3200   62.3079 C   0  0  0  0  0  0  0  0  0  0  0  0
  -51.3042   60.3560   64.0817 C   0  0  0  0  0  0  0  0  0  0  0  0
  -50.9352   59.9295   62.6588 C   0  0  0  0  0  0  0  0  0  0  0  0
  -39.7658   59.7208   64.6162 C   0  0  0  0  0  0  0  0  0  0  0  0
  -38.8665   60.4727   65.6257 C   0  0  0  0  0  0  0  0  0  0  0  0
  -35.7048   58.6746   64.9005 C   0  0  0  0  0  0  0  0  0  0  0  0
  -34.7415   59.6637   65.1387 C   0  0  0  0  0  0  0  0  0  0  0  0
  -37.0656   58.9571   65.0695 C   0  0  0  0  0  0  0  0  0  0  0  0
  -35.1655   60.9298   65.5418 C   0  0  0  0  0  0  0  0  0  0  0  0
  -36.5224   61.2066   65.7005 C   0  0  0  0  0  0  0  0  0  0  0  0
  -37.4977   60.2352   65.4409 C   0  0  0  0  0  0  0  0  0  0  0  0
  -34.2974   61.9398   65.7946 O   0  0  0  0  0  0  0  0  0  0  0  0
  -36.8909   62.4616   66.0889 O   0  0  0  0  0  0  0  0  0  0  0  0
  -33.3756   61.7997   65.7011 H   0  0  0  0  0  0  0  0  0  0  0  0
  -36.2365   63.1095   66.2619 H   0  0  0  0  0  0  0  0  0  0  0  0
 12 13  1  0  0  0
  9 10  2  0  0  0
  9  8  1  0  0  0
  6  7  2  0  0  0
  6  8  1  0  0  0
 10 11  1  0  0  0
  7  5  1  0  0  0
 16 17  2  0  0  0
 16 18  1  0  0  0
 17 19  1  0  0  0
 18 21  2  0  0  0
 13 11  1  0  0  0
  5  4  1  0  0  0
  4  3  1  0  0  0
  3  2  1  0  0  0
  2  1  1  0  0  0
  1 14  1  0  0  0
 14 15  1  0  0  0
 15 21  1  0  0  0
 19 20  2  0  0  0
 19 22  1  0  0  0
 20 21  1  0  0  0
 20 23  1  0  0  0
 22 24  1  0  0  0
 23 25  1  0  0  0
M  END
> <minimizedAffinity>
-7.92997

> <CNNscore>
0.5724688172

> <CNNaffinity>
6.2463679314

> <CNN_VS>
3.5758509636

> <CNNaffinity_variance>
0.3796822131

$$$$



 25 25  0  0  0  0  0  0  0  0999 V2000
  -37.8881   57.5964   63.6864 C   0  0  0  0  0  0  0  0  0  0  0  0
  -39.1614   58.0057   64.4416 C   0  0  0  0  0  0  0  0  0  0  0  0
  -39.4354   59.4916   64.2539 C   0  0  0  0  0  0  0  0  0  0  0  0
  -39.9342   60.0862   65.5713 C   0  0  0  0  0  0  0  0  0  0  0  0
  -41.3395   59.5718   65.8829 C   0  0  0  0  0  0  0  0  0  0  0  0
  -43.7198   59.5167   64.6966 C   0  0  0  0  0  0  0  0  0  0  0  0
  -42.2622   60.0149   64.7460 C   0  0  0  0  0  0  0  0  0  0  0  0
  -44.2622   58.4791   65.6916 C   0  0  0  0  0  0  0  0  0  0  0  0
  -45.4271   59.1382   66.4444 C   0  0  0  0  0  0  0  0  0  0  0  0
  -46.8939   58.6905   66.2372 C   0  0  0  0  0  0  0  0  0  0  0  0
  -47.2638   57.5327   65.2894 C   0  0  0  0  0  0  0  0  0  0  0  0
  -49.7247   58.0983   65.0597 C   0  0  0  0  0  0  0  0  0  0  0  0
  -48.3683   58.0407   64.3527 C   0  0  0  0  0  0  0  0  0  0  0  0
  -36.6515   57.4382   64.6087 C   0  0  0  0  0  0  0  0  0  0  0  0
  -35.7411   58.6889   64.6255 C   0  0  0  0  0  0  0  0  0  0  0  0
  -33.3701   57.2905   62.1399 C   0  0  0  0  0  0  0  0  0  0  0  0
  -32.3789   58.2796   62.0885 C   0  0  0  0  0  0  0  0  0  0  0  0
  -34.4747   57.4392   62.9871 C   0  0  0  0  0  0  0  0  0  0  0  0
  -32.5180   59.4108   62.8924 C   0  0  0  0  0  0  0  0  0  0  0  0
  -33.6243   59.5562   63.7277 C   0  0  0  0  0  0  0  0  0  0  0  0
  -34.6355   58.5878   63.7701 C   0  0  0  0  0  0  0  0  0  0  0  0
  -31.6028   60.4109   62.9029 O   0  0  0  0  0  0  0  0  0  0  0  0
  -33.7220   60.6834   64.4904 O   0  0  0  0  0  0  0  0  0  0  0  0
  -30.8429   60.3563   62.3574 H   0  0  0  0  0  0  0  0  0  0  0  0
  -33.0441   61.3296   64.4603 H   0  0  0  0  0  0  0  0  0  0  0  0
 12 13  1  0  0  0
  9 10  2  0  0  0
  9  8  1  0  0  0
  6  7  2  0  0  0
  6  8  1  0  0  0
 10 11  1  0  0  0
  7  5  1  0  0  0
 16 17  2  0  0  0
 16 18  1  0  0  0
 17 19  1  0  0  0
 18 21  2  0  0  0
 13 11  1  0  0  0
  5  4  1  0  0  0
  4  3  1  0  0  0
  3  2  1  0  0  0
  2  1  1  0  0  0
  1 14  1  0  0  0
 14 15  1  0  0  0
 15 21  1  0  0  0
 19 20  2  0  0  0
 19 22  1  0  0  0
 20 21  1  0  0  0
 20 23  1  0  0  0
 22 24  1  0  0  0
 23 25  1  0  0  0
M  END
> <minimizedAffinity>
-7.64756

> <CNNscore>
0.5649866462

> <CNNaffinity>
6.1041383743

> <CNN_VS>
3.4487566948

> <CNNaffinity_variance>
0.1158361584

$$$$
