


 53 55  0  0  0  0  0  0  0  0999 V2000
  -38.1469   60.2409   64.8808 C   0  0  0  0  0  0  0  0  0  0  0  0
  -39.2472   59.6120   65.5916 N   0  0  0  0  0  0  0  0  0  0  0  0
  -40.8086   60.8713   64.5939 O   0  0  0  0  0  0  0  0  0  0  0  0
  -40.5053   59.9865   65.3759 C   0  0  0  0  0  0  0  0  0  0  0  0
  -39.0588   58.8979   66.2425 H   0  0  0  0  0  0  0  0  0  0  0  0
  -41.5797   59.2769   66.1661 C   0  0  0  0  0  0  0  0  0  0  0  0
  -42.8600   59.1749   65.3441 C   0  0  0  0  0  0  0  0  0  0  0  0
  -43.9834   58.5588   66.1705 C   0  0  0  0  0  0  0  0  0  0  0  0
  -44.4170   57.2111   65.6052 C   0  0  0  0  0  0  0  0  0  0  0  0
  -45.9359   57.0882   65.6161 C   0  0  0  0  0  0  0  0  0  0  0  0
  -46.5890   58.4217   65.2759 C   0  0  0  0  0  0  0  0  0  0  0  0
  -47.7430   58.2373   64.2983 C   0  0  0  0  0  0  0  0  0  0  0  0
  -49.0389   58.2291   65.0722 C   0  0  0  0  0  0  0  0  0  0  0  0
  -50.1738   58.6180   64.4961 C   0  0  0  0  0  0  0  0  0  0  0  0
  -50.1720   59.0761   63.0583 C   0  0  0  0  0  0  0  0  0  0  0  0
  -51.4862   58.6689   62.4078 C   0  0  0  0  0  0  0  0  0  0  0  0
  -51.2496   57.6567   61.2928 C   0  0  0  0  0  0  0  0  0  0  0  0
  -49.7604   57.4989   61.0087 C   0  0  0  0  0  0  0  0  0  0  0  0
  -49.4786   56.2380   60.2029 C   0  0  0  0  0  0  0  0  0  0  0  0
  -48.6321   56.5710   58.9802 C   0  0  0  0  0  0  0  0  0  0  0  0
  -47.6802   55.4311   58.6388 C   0  0  0  0  0  0  0  0  0  0  0  0
  -47.6406   55.1831   57.1485 C   0  0  0  0  0  0  0  0  0  0  0  0
  -37.4250   57.9307   64.9765 O   0  0  0  0  0  0  0  0  0  0  0  0
  -37.1816   59.1901   64.3385 C   0  0  0  0  0  0  0  0  0  0  0  0
  -37.3017   58.0243   65.9341 H   0  0  0  0  0  0  0  0  0  0  0  0
  -38.1051   59.9370   62.1835 C   0  0  0  0  0  0  0  0  0  0  0  0
  -37.3729   59.0471   62.8481 C   0  0  0  0  0  0  0  0  0  0  0  0
  -38.2896   59.7878   60.6927 C   0  0  0  0  0  0  0  0  0  0  0  0
  -38.1680   58.3147   60.3262 C   0  0  0  0  0  0  0  0  0  0  0  0
  -37.7105   58.1201   58.8846 C   0  0  0  0  0  0  0  0  0  0  0  0
  -36.9960   56.7847   58.7141 C   0  0  0  0  0  0  0  0  0  0  0  0
  -36.7316   56.1098   60.0550 C   0  0  0  0  0  0  0  0  0  0  0  0
  -35.3579   55.4485   60.0628 C   0  0  0  0  0  0  0  0  0  0  0  0
  -34.2629   56.5078   60.1289 C   0  0  0  0  0  0  0  0  0  0  0  0
  -34.2957   57.3026   61.4251 C   0  0  0  0  0  0  0  0  0  0  0  0
  -32.9149   57.3243   62.0585 C   0  0  0  0  0  0  0  0  0  0  0  0
  -32.6321   58.6536   62.7400 C   0  0  0  0  0  0  0  0  0  0  0  0
  -31.6515   59.4495   61.8918 C   0  0  0  0  0  0  0  0  0  0  0  0
  -30.6015   60.1357   62.7513 C   0  0  0  0  0  0  0  0  0  0  0  0
  -29.4414   60.5971   61.8969 C   0  0  0  0  0  0  0  0  0  0  0  0
  -37.4340   61.2437   65.7818 C   0  0  0  0  0  0  0  0  0  0  0  0
  -37.4682   62.5302   65.1694 O   0  0  0  0  0  0  0  0  0  0  0  0
  -36.3733   63.6496   65.5397 P   0  0  0  0  0  0  0  0  0  0  0  0
  -36.3009   63.8017   67.0400 O   0  0  0  0  0  0  0  0  0  0  0  0
  -36.7744   64.9593   64.9022 O   0  0  0  0  0  0  0  0  0  0  0  0
  -36.8178   64.8503   63.9393 H   0  0  0  0  0  0  0  0  0  0  0  0
  -34.9330   63.1977   64.9798 O   0  0  0  0  0  0  0  0  0  0  0  0
  -34.7933   62.7502   63.6333 C   0  0  0  0  0  0  0  0  0  0  0  0
  -32.5680   63.7975   63.6769 N   0  0  0  0  0  0  0  0  0  0  0  0
  -33.3171   62.5862   63.2874 C   0  0  0  0  0  0  0  0  0  0  0  0
  -32.9535   65.1104   63.1268 C   0  0  0  0  0  0  0  0  0  0  0  0
  -31.2863   63.6721   64.3940 C   0  0  0  0  0  0  0  0  0  0  0  0
  -31.7926   63.5905   62.4467 C   0  0  0  0  0  0  0  0  0  0  0  0
 49 50  1  0  0  0
 49 51  1  0  0  0
 49 52  1  0  0  0
 49 53  1  0  0  0
 33 32  1  0  0  0
 33 34  1  0  0  0
 47 43  1  0  0  0
 47 48  1  0  0  0
 43 42  1  0  0  0
 43 44  2  0  0  0
 43 45  1  0  0  0
 32 31  1  0  0  0
  2  1  1  0  0  0
  2  4  1  0  0  0
 42 41  1  0  0  0
 34 35  1  0  0  0
 23 24  1  0  0  0
 31 30  1  0  0  0
  3  4  2  0  0  0
 35 36  1  0  0  0
 30 29  1  0  0  0
 36 37  1  0  0  0
 50 53  1  0  0  0
 50 48  1  0  0  0
 37 38  1  0  0  0
 29 28  1  0  0  0
  1 24  1  0  0  0
  1 41  1  0  0  0
 51 53  1  0  0  0
 52 53  1  0  0  0
 38 39  1  0  0  0
 28 26  1  0  0  0
 24 27  1  0  0  0
  8  9  1  0  0  0
  8  7  1  0  0  0
  9 10  1  0  0  0
  7  6  1  0  0  0
 10 11  1  0  0  0
  6  4  1  0  0  0
 39 40  1  0  0  0
 11 12  1  0  0  0
 26 27  2  0  0  0
 17 18  1  0  0  0
 17 16  1  0  0  0
 18 19  1  0  0  0
 12 13  1  0  0  0
 16 15  1  0  0  0
 19 20  1  0  0  0
 15 14  1  0  0  0
 20 21  1  0  0  0
 13 14  2  0  0  0
 21 22  1  0  0  0
  2  5  1  0  0  0
 23 25  1  0  0  0
 45 46  1  0  0  0
M  CHG 1  44  -1
M  END
> <minimizedAffinity>
-9.21946

> <minimizedRMSD>
1.12082

> <CNNscore>
0.7271831036

> <CNNaffinity>
7.6326384544

> <CNN_VS>
5.5503258705

> <CNNaffinity_variance>
0.9214662313

$$$$
