


 53 55  0  0  0  0  0  0  0  0999 V2000
  -41.2737   59.6646   65.5387 C   0  0  0  0  0  0  0  0  0  0  0  0
  -41.9465   58.3962   65.7620 N   0  0  0  0  0  0  0  0  0  0  0  0
  -43.5197   59.2921   67.0817 O   0  0  0  0  0  0  0  0  0  0  0  0
  -43.0346   58.3226   66.5237 C   0  0  0  0  0  0  0  0  0  0  0  0
  -41.5917   57.5789   65.3432 H   0  0  0  0  0  0  0  0  0  0  0  0
  -43.6604   56.9590   66.7000 C   0  0  0  0  0  0  0  0  0  0  0  0
  -44.3637   56.5304   65.4165 C   0  0  0  0  0  0  0  0  0  0  0  0
  -45.3261   57.6135   64.9418 C   0  0  0  0  0  0  0  0  0  0  0  0
  -46.6936   57.4721   65.6004 C   0  0  0  0  0  0  0  0  0  0  0  0
  -47.2254   58.8338   66.0305 C   0  0  0  0  0  0  0  0  0  0  0  0
  -47.9861   59.5017   64.8923 C   0  0  0  0  0  0  0  0  0  0  0  0
  -48.9674   58.5345   64.2421 C   0  0  0  0  0  0  0  0  0  0  0  0
  -50.3735   59.0013   64.5311 C   0  0  0  0  0  0  0  0  0  0  0  0
  -51.2174   59.2642   63.5362 C   0  0  0  0  0  0  0  0  0  0  0  0
  -50.7703   59.1004   62.1042 C   0  0  0  0  0  0  0  0  0  0  0  0
  -51.4368   57.8650   61.5163 C   0  0  0  0  0  0  0  0  0  0  0  0
  -50.4422   57.0479   60.6997 C   0  0  0  0  0  0  0  0  0  0  0  0
  -49.9318   57.8473   59.5065 C   0  0  0  0  0  0  0  0  0  0  0  0
  -48.9416   57.0395   58.6784 C   0  0  0  0  0  0  0  0  0  0  0  0
  -47.5206   57.5300   58.9284 C   0  0  0  0  0  0  0  0  0  0  0  0
  -46.7170   57.5810   57.6347 C   0  0  0  0  0  0  0  0  0  0  0  0
  -47.3607   56.7349   56.5606 C   0  0  0  0  0  0  0  0  0  0  0  0
  -41.3734   61.5490   64.0200 O   0  0  0  0  0  0  0  0  0  0  0  0
  -41.4429   60.1199   64.0916 C   0  0  0  0  0  0  0  0  0  0  0  0
  -42.0747   61.9347   64.5679 H   0  0  0  0  0  0  0  0  0  0  0  0
  -39.7221   60.2664   62.3390 C   0  0  0  0  0  0  0  0  0  0  0  0
  -40.3524   59.5172   63.2396 C   0  0  0  0  0  0  0  0  0  0  0  0
  -38.6311   59.6564   61.4925 C   0  0  0  0  0  0  0  0  0  0  0  0
  -38.5769   58.1587   61.7631 C   0  0  0  0  0  0  0  0  0  0  0  0
  -37.8636   57.4017   60.6479 C   0  0  0  0  0  0  0  0  0  0  0  0
  -37.9745   58.1482   59.3237 C   0  0  0  0  0  0  0  0  0  0  0  0
  -37.3080   57.3833   58.1861 C   0  0  0  0  0  0  0  0  0  0  0  0
  -36.5240   56.1922   58.7255 C   0  0  0  0  0  0  0  0  0  0  0  0
  -35.0452   56.3346   58.3817 C   0  0  0  0  0  0  0  0  0  0  0  0
  -34.2282   56.8962   59.5351 C   0  0  0  0  0  0  0  0  0  0  0  0
  -34.3057   55.9634   60.7317 C   0  0  0  0  0  0  0  0  0  0  0  0
  -33.2331   56.2824   61.7610 C   0  0  0  0  0  0  0  0  0  0  0  0
  -32.9616   57.7793   61.7499 C   0  0  0  0  0  0  0  0  0  0  0  0
  -32.8617   58.3372   63.1609 C   0  0  0  0  0  0  0  0  0  0  0  0
  -34.2054   58.2638   63.8522 C   0  0  0  0  0  0  0  0  0  0  0  0
  -39.8019   59.5626   65.9248 C   0  0  0  0  0  0  0  0  0  0  0  0
  -39.2569   60.8742   66.0430 O   0  0  0  0  0  0  0  0  0  0  0  0
  -37.6916   61.1435   65.7856 P   0  0  0  0  0  0  0  0  0  0  0  0
  -37.0697   59.9191   65.1586 O   0  0  0  0  0  0  0  0  0  0  0  0
  -37.0222   61.4501   67.1049 O   0  0  0  0  0  0  0  0  0  0  0  0
  -37.4291   62.2377   67.4986 H   0  0  0  0  0  0  0  0  0  0  0  0
  -37.5191   62.3976   64.7907 O   0  0  0  0  0  0  0  0  0  0  0  0
  -36.8396   62.2406   63.5472 C   0  0  0  0  0  0  0  0  0  0  0  0
  -34.6744   63.3643   63.2316 N   0  0  0  0  0  0  0  0  0  0  0  0
  -36.1389   63.5405   63.1665 C   0  0  0  0  0  0  0  0  0  0  0  0
  -34.0398   62.9342   64.4914 C   0  0  0  0  0  0  0  0  0  0  0  0
  -33.8228   63.8654   62.1378 C   0  0  0  0  0  0  0  0  0  0  0  0
  -34.6351   64.7329   63.7634 C   0  0  0  0  0  0  0  0  0  0  0  0
 49 50  1  0  0  0
 49 51  1  0  0  0
 49 52  1  0  0  0
 49 53  1  0  0  0
 33 32  1  0  0  0
 33 34  1  0  0  0
 47 43  1  0  0  0
 47 48  1  0  0  0
 43 42  1  0  0  0
 43 44  2  0  0  0
 43 45  1  0  0  0
 32 31  1  0  0  0
  2  1  1  0  0  0
  2  4  1  0  0  0
 42 41  1  0  0  0
 34 35  1  0  0  0
 23 24  1  0  0  0
 31 30  1  0  0  0
  3  4  2  0  0  0
 35 36  1  0  0  0
 30 29  1  0  0  0
 36 37  1  0  0  0
 50 53  1  0  0  0
 50 48  1  0  0  0
 37 38  1  0  0  0
 29 28  1  0  0  0
  1 24  1  0  0  0
  1 41  1  0  0  0
 51 53  1  0  0  0
 52 53  1  0  0  0
 38 39  1  0  0  0
 28 26  1  0  0  0
 24 27  1  0  0  0
  8  9  1  0  0  0
  8  7  1  0  0  0
  9 10  1  0  0  0
  7  6  1  0  0  0
 10 11  1  0  0  0
  6  4  1  0  0  0
 39 40  1  0  0  0
 11 12  1  0  0  0
 26 27  2  0  0  0
 17 18  1  0  0  0
 17 16  1  0  0  0
 18 19  1  0  0  0
 12 13  1  0  0  0
 16 15  1  0  0  0
 19 20  1  0  0  0
 15 14  1  0  0  0
 20 21  1  0  0  0
 13 14  2  0  0  0
 21 22  1  0  0  0
  2  5  1  0  0  0
 23 25  1  0  0  0
 45 46  1  0  0  0
M  CHG 1  44  -1
M  END
> <minimizedAffinity>
-9.48480

$$$$



 53 55  0  0  0  0  0  0  0  0999 V2000
  -38.8147   59.8547   65.4871 C   0  0  0  0  0  0  0  0  0  0  0  0
  -40.0583   59.3782   66.0683 N   0  0  0  0  0  0  0  0  0  0  0  0
  -41.3181   60.8685   64.9678 O   0  0  0  0  0  0  0  0  0  0  0  0
  -41.2228   59.9346   65.7458 C   0  0  0  0  0  0  0  0  0  0  0  0
  -40.0388   58.6322   66.7104 H   0  0  0  0  0  0  0  0  0  0  0  0
  -42.4601   59.3730   66.4059 C   0  0  0  0  0  0  0  0  0  0  0  0
  -43.6052   59.2944   65.4018 C   0  0  0  0  0  0  0  0  0  0  0  0
  -44.9512   59.2972   66.1181 C   0  0  0  0  0  0  0  0  0  0  0  0
  -46.1079   59.4065   65.1313 C   0  0  0  0  0  0  0  0  0  0  0  0
  -47.3649   59.9082   65.8314 C   0  0  0  0  0  0  0  0  0  0  0  0
  -48.4375   60.2811   64.8160 C   0  0  0  0  0  0  0  0  0  0  0  0
  -49.2969   59.0763   64.4536 C   0  0  0  0  0  0  0  0  0  0  0  0
  -50.7452   59.5011   64.4331 C   0  0  0  0  0  0  0  0  0  0  0  0
  -51.3998   59.6188   63.2803 C   0  0  0  0  0  0  0  0  0  0  0  0
  -50.6933   59.3307   61.9784 C   0  0  0  0  0  0  0  0  0  0  0  0
  -51.0143   57.9073   61.5460 C   0  0  0  0  0  0  0  0  0  0  0  0
  -50.7058   57.7065   60.0667 C   0  0  0  0  0  0  0  0  0  0  0  0
  -49.2447   58.0219   59.7683 C   0  0  0  0  0  0  0  0  0  0  0  0
  -48.4052   56.7535   59.6979 C   0  0  0  0  0  0  0  0  0  0  0  0
  -46.9850   57.0842   59.2551 C   0  0  0  0  0  0  0  0  0  0  0  0
  -46.9746   57.7650   57.8919 C   0  0  0  0  0  0  0  0  0  0  0  0
  -47.3181   56.7867   56.7924 C   0  0  0  0  0  0  0  0  0  0  0  0
  -38.3804   57.4733   65.5725 O   0  0  0  0  0  0  0  0  0  0  0  0
  -37.9998   58.6930   64.9246 C   0  0  0  0  0  0  0  0  0  0  0  0
  -38.2228   57.5511   66.5265 H   0  0  0  0  0  0  0  0  0  0  0  0
  -37.9874   57.4292   62.8134 C   0  0  0  0  0  0  0  0  0  0  0  0
  -38.2441   58.5743   63.4398 C   0  0  0  0  0  0  0  0  0  0  0  0
  -38.2365   57.3183   61.3287 C   0  0  0  0  0  0  0  0  0  0  0  0
  -37.3133   58.2862   60.6006 C   0  0  0  0  0  0  0  0  0  0  0  0
  -37.8569   58.6727   59.2293 C   0  0  0  0  0  0  0  0  0  0  0  0
  -37.5599   57.5894   58.1991 C   0  0  0  0  0  0  0  0  0  0  0  0
  -36.1991   56.9439   58.4340 C   0  0  0  0  0  0  0  0  0  0  0  0
  -36.3517   55.4521   58.7093 C   0  0  0  0  0  0  0  0  0  0  0  0
  -35.4851   55.0432   59.8956 C   0  0  0  0  0  0  0  0  0  0  0  0
  -34.2594   55.9290   60.0571 C   0  0  0  0  0  0  0  0  0  0  0  0
  -34.1900   56.4694   61.4753 C   0  0  0  0  0  0  0  0  0  0  0  0
  -32.7529   56.6785   61.9254 C   0  0  0  0  0  0  0  0  0  0  0  0
  -32.6382   58.0305   62.6136 C   0  0  0  0  0  0  0  0  0  0  0  0
  -31.9604   59.0552   61.7176 C   0  0  0  0  0  0  0  0  0  0  0  0
  -31.0083   59.9112   62.5235 C   0  0  0  0  0  0  0  0  0  0  0  0
  -38.0175   60.6521   66.5138 C   0  0  0  0  0  0  0  0  0  0  0  0
  -37.7997   61.9699   66.0165 O   0  0  0  0  0  0  0  0  0  0  0  0
  -36.3409   62.4341   65.5210 P   0  0  0  0  0  0  0  0  0  0  0  0
  -35.8725   61.5176   64.4164 O   0  0  0  0  0  0  0  0  0  0  0  0
  -35.3834   62.3745   66.6882 O   0  0  0  0  0  0  0  0  0  0  0  0
  -35.6935   62.9664   67.3913 H   0  0  0  0  0  0  0  0  0  0  0  0
  -36.4178   63.9430   64.9648 O   0  0  0  0  0  0  0  0  0  0  0  0
  -35.3195   64.8334   65.1478 C   0  0  0  0  0  0  0  0  0  0  0  0
  -33.1304   64.1068   64.2931 N   0  0  0  0  0  0  0  0  0  0  0  0
  -34.3953   64.7797   63.9360 C   0  0  0  0  0  0  0  0  0  0  0  0
  -32.3009   64.6339   65.3926 C   0  0  0  0  0  0  0  0  0  0  0  0
  -32.5627   63.0826   63.3979 C   0  0  0  0  0  0  0  0  0  0  0  0
  -32.4774   65.0943   63.4236 C   0  0  0  0  0  0  0  0  0  0  0  0
 49 50  1  0  0  0
 49 51  1  0  0  0
 49 52  1  0  0  0
 49 53  1  0  0  0
 33 32  1  0  0  0
 33 34  1  0  0  0
 47 43  1  0  0  0
 47 48  1  0  0  0
 43 42  1  0  0  0
 43 44  2  0  0  0
 43 45  1  0  0  0
 32 31  1  0  0  0
  2  1  1  0  0  0
  2  4  1  0  0  0
 42 41  1  0  0  0
 34 35  1  0  0  0
 23 24  1  0  0  0
 31 30  1  0  0  0
  3  4  2  0  0  0
 35 36  1  0  0  0
 30 29  1  0  0  0
 36 37  1  0  0  0
 50 53  1  0  0  0
 50 48  1  0  0  0
 37 38  1  0  0  0
 29 28  1  0  0  0
  1 24  1  0  0  0
  1 41  1  0  0  0
 51 53  1  0  0  0
 52 53  1  0  0  0
 38 39  1  0  0  0
 28 26  1  0  0  0
 24 27  1  0  0  0
  8  9  1  0  0  0
  8  7  1  0  0  0
  9 10  1  0  0  0
  7  6  1  0  0  0
 10 11  1  0  0  0
  6  4  1  0  0  0
 39 40  1  0  0  0
 11 12  1  0  0  0
 26 27  2  0  0  0
 17 18  1  0  0  0
 17 16  1  0  0  0
 18 19  1  0  0  0
 12 13  1  0  0  0
 16 15  1  0  0  0
 19 20  1  0  0  0
 15 14  1  0  0  0
 20 21  1  0  0  0
 13 14  2  0  0  0
 21 22  1  0  0  0
  2  5  1  0  0  0
 23 25  1  0  0  0
 45 46  1  0  0  0
M  CHG 1  44  -1
M  END
> <minimizedAffinity>
-9.24133

$$$$



 53 55  0  0  0  0  0  0  0  0999 V2000
  -39.4257   60.1285   64.4365 C   0  0  0  0  0  0  0  0  0  0  0  0
  -40.4745   60.3452   65.4186 N   0  0  0  0  0  0  0  0  0  0  0  0
  -41.0455   58.1806   65.5071 O   0  0  0  0  0  0  0  0  0  0  0  0
  -41.2011   59.3309   65.8800 C   0  0  0  0  0  0  0  0  0  0  0  0
  -40.6499   61.2563   65.7476 H   0  0  0  0  0  0  0  0  0  0  0  0
  -42.2711   59.6568   66.8954 C   0  0  0  0  0  0  0  0  0  0  0  0
  -43.5425   58.8704   66.5943 C   0  0  0  0  0  0  0  0  0  0  0  0
  -44.2391   59.4253   65.3567 C   0  0  0  0  0  0  0  0  0  0  0  0
  -45.7551   59.4087   65.5154 C   0  0  0  0  0  0  0  0  0  0  0  0
  -46.3305   58.0824   65.0337 C   0  0  0  0  0  0  0  0  0  0  0  0
  -47.6149   58.3043   64.2454 C   0  0  0  0  0  0  0  0  0  0  0  0
  -48.4749   59.3872   64.8852 C   0  0  0  0  0  0  0  0  0  0  0  0
  -49.7058   58.7440   65.4766 C   0  0  0  0  0  0  0  0  0  0  0  0
  -50.8927   58.8902   64.8928 C   0  0  0  0  0  0  0  0  0  0  0  0
  -51.0173   59.7080   63.6307 C   0  0  0  0  0  0  0  0  0  0  0  0
  -51.4512   58.7967   62.4917 C   0  0  0  0  0  0  0  0  0  0  0  0
  -50.2425   58.2760   61.7222 C   0  0  0  0  0  0  0  0  0  0  0  0
  -50.6733   57.3238   60.6127 C   0  0  0  0  0  0  0  0  0  0  0  0
  -49.9091   57.5906   59.3230 C   0  0  0  0  0  0  0  0  0  0  0  0
  -48.4089   57.4741   59.5645 C   0  0  0  0  0  0  0  0  0  0  0  0
  -47.7934   56.3771   58.7045 C   0  0  0  0  0  0  0  0  0  0  0  0
  -47.7509   56.7852   57.2500 C   0  0  0  0  0  0  0  0  0  0  0  0
  -38.1814   61.1851   66.2261 O   0  0  0  0  0  0  0  0  0  0  0  0
  -38.1550   60.8789   64.8269 C   0  0  0  0  0  0  0  0  0  0  0  0
  -38.9576   61.7327   66.4227 H   0  0  0  0  0  0  0  0  0  0  0  0
  -37.0163   58.7049   64.6507 C   0  0  0  0  0  0  0  0  0  0  0  0
  -36.9480   60.0268   64.5185 C   0  0  0  0  0  0  0  0  0  0  0  0
  -35.8051   57.8598   64.3381 C   0  0  0  0  0  0  0  0  0  0  0  0
  -34.7993   58.7059   63.5690 C   0  0  0  0  0  0  0  0  0  0  0  0
  -33.3603   58.3417   63.9183 C   0  0  0  0  0  0  0  0  0  0  0  0
  -32.4346   58.5734   62.7299 C   0  0  0  0  0  0  0  0  0  0  0  0
  -32.2809   60.0567   62.4138 C   0  0  0  0  0  0  0  0  0  0  0  0
  -30.8237   60.4860   62.5428 C   0  0  0  0  0  0  0  0  0  0  0  0
  -30.6566   61.9305   62.0835 C   0  0  0  0  0  0  0  0  0  0  0  0
  -31.3419   62.9219   63.0111 C   0  0  0  0  0  0  0  0  0  0  0  0
  -32.1980   63.8840   62.2052 C   0  0  0  0  0  0  0  0  0  0  0  0
  -33.4830   64.2380   62.9368 C   0  0  0  0  0  0  0  0  0  0  0  0
  -34.5147   63.1482   62.6872 C   0  0  0  0  0  0  0  0  0  0  0  0
  -35.9320   63.6824   62.8215 C   0  0  0  0  0  0  0  0  0  0  0  0
  -36.1528   64.2462   64.2079 C   0  0  0  0  0  0  0  0  0  0  0  0
  -39.9069   60.5284   63.0458 C   0  0  0  0  0  0  0  0  0  0  0  0
  -39.7290   59.4300   62.1551 O   0  0  0  0  0  0  0  0  0  0  0  0
  -38.8519   59.5879   60.8154 P   0  0  0  0  0  0  0  0  0  0  0  0
  -37.5123   60.1911   61.1625 O   0  0  0  0  0  0  0  0  0  0  0  0
  -39.5906   60.4820   59.8470 O   0  0  0  0  0  0  0  0  0  0  0  0
  -40.4490   60.0853   59.6310 H   0  0  0  0  0  0  0  0  0  0  0  0
  -38.6275   58.1404   60.1470 O   0  0  0  0  0  0  0  0  0  0  0  0
  -37.3934   57.8286   59.5050 C   0  0  0  0  0  0  0  0  0  0  0  0
  -35.3557   56.5116   59.9100 N   0  0  0  0  0  0  0  0  0  0  0  0
  -36.8235   56.5315   60.0692 C   0  0  0  0  0  0  0  0  0  0  0  0
  -34.7587   56.6482   58.5685 C   0  0  0  0  0  0  0  0  0  0  0  0
  -34.4985   56.0938   61.0340 C   0  0  0  0  0  0  0  0  0  0  0  0
  -35.5085   55.0804   59.6171 C   0  0  0  0  0  0  0  0  0  0  0  0
 49 50  1  0  0  0
 49 51  1  0  0  0
 49 52  1  0  0  0
 49 53  1  0  0  0
 33 32  1  0  0  0
 33 34  1  0  0  0
 47 43  1  0  0  0
 47 48  1  0  0  0
 43 42  1  0  0  0
 43 44  2  0  0  0
 43 45  1  0  0  0
 32 31  1  0  0  0
  2  1  1  0  0  0
  2  4  1  0  0  0
 42 41  1  0  0  0
 34 35  1  0  0  0
 23 24  1  0  0  0
 31 30  1  0  0  0
  3  4  2  0  0  0
 35 36  1  0  0  0
 30 29  1  0  0  0
 36 37  1  0  0  0
 50 53  1  0  0  0
 50 48  1  0  0  0
 37 38  1  0  0  0
 29 28  1  0  0  0
  1 24  1  0  0  0
  1 41  1  0  0  0
 51 53  1  0  0  0
 52 53  1  0  0  0
 38 39  1  0  0  0
 28 26  1  0  0  0
 24 27  1  0  0  0
  8  9  1  0  0  0
  8  7  1  0  0  0
  9 10  1  0  0  0
  7  6  1  0  0  0
 10 11  1  0  0  0
  6  4  1  0  0  0
 39 40  1  0  0  0
 11 12  1  0  0  0
 26 27  2  0  0  0
 17 18  1  0  0  0
 17 16  1  0  0  0
 18 19  1  0  0  0
 12 13  1  0  0  0
 16 15  1  0  0  0
 19 20  1  0  0  0
 15 14  1  0  0  0
 20 21  1  0  0  0
 13 14  2  0  0  0
 21 22  1  0  0  0
  2  5  1  0  0  0
 23 25  1  0  0  0
 45 46  1  0  0  0
M  CHG 1  44  -1
M  END
> <minimizedAffinity>
-8.96083

$$$$



 53 55  0  0  0  0  0  0  0  0999 V2000
  -39.5907   58.5833   64.3607 C   0  0  0  0  0  0  0  0  0  0  0  0
  -40.7710   58.5409   65.2073 N   0  0  0  0  0  0  0  0  0  0  0  0
  -40.9586   60.7708   65.3135 O   0  0  0  0  0  0  0  0  0  0  0  0
  -41.3650   59.6605   65.6111 C   0  0  0  0  0  0  0  0  0  0  0  0
  -41.1365   57.6703   65.4861 H   0  0  0  0  0  0  0  0  0  0  0  0
  -42.5831   59.5140   66.4926 C   0  0  0  0  0  0  0  0  0  0  0  0
  -43.4845   58.4017   65.9676 C   0  0  0  0  0  0  0  0  0  0  0  0
  -44.5005   58.9549   64.9745 C   0  0  0  0  0  0  0  0  0  0  0  0
  -45.4572   57.8702   64.4928 C   0  0  0  0  0  0  0  0  0  0  0  0
  -46.9016   58.3458   64.5923 C   0  0  0  0  0  0  0  0  0  0  0  0
  -47.0867   59.2659   65.7922 C   0  0  0  0  0  0  0  0  0  0  0  0
  -48.5253   59.7573   65.8939 C   0  0  0  0  0  0  0  0  0  0  0  0
  -49.4494   58.5640   65.8679 C   0  0  0  0  0  0  0  0  0  0  0  0
  -50.6044   58.6165   65.2088 C   0  0  0  0  0  0  0  0  0  0  0  0
  -51.0020   59.8780   64.4823 C   0  0  0  0  0  0  0  0  0  0  0  0
  -51.3892   59.5246   63.0535 C   0  0  0  0  0  0  0  0  0  0  0  0
  -50.2497   59.8346   62.0895 C   0  0  0  0  0  0  0  0  0  0  0  0
  -49.4741   58.5698   61.7400 C   0  0  0  0  0  0  0  0  0  0  0  0
  -50.4095   57.4360   61.3422 C   0  0  0  0  0  0  0  0  0  0  0  0
  -49.7538   56.5574   60.2837 C   0  0  0  0  0  0  0  0  0  0  0  0
  -49.3438   57.3731   59.0636 C   0  0  0  0  0  0  0  0  0  0  0  0
  -47.8763   57.1881   58.7534 C   0  0  0  0  0  0  0  0  0  0  0  0
  -37.3876   57.7137   64.8679 O   0  0  0  0  0  0  0  0  0  0  0  0
  -38.3268   58.7426   65.2017 C   0  0  0  0  0  0  0  0  0  0  0  0
  -37.7854   56.8454   65.0374 H   0  0  0  0  0  0  0  0  0  0  0  0
  -37.4679   60.9232   65.9510 C   0  0  0  0  0  0  0  0  0  0  0  0
  -37.7100   60.0949   64.9387 C   0  0  0  0  0  0  0  0  0  0  0  0
  -36.8488   62.2730   65.6795 C   0  0  0  0  0  0  0  0  0  0  0  0
  -36.4464   62.3443   64.2125 C   0  0  0  0  0  0  0  0  0  0  0  0
  -36.4026   63.7801   63.7008 C   0  0  0  0  0  0  0  0  0  0  0  0
  -36.1220   64.7563   64.8371 C   0  0  0  0  0  0  0  0  0  0  0  0
  -34.7573   65.4191   64.6888 C   0  0  0  0  0  0  0  0  0  0  0  0
  -33.8413   65.0283   65.8432 C   0  0  0  0  0  0  0  0  0  0  0  0
  -33.0892   63.7447   65.5087 C   0  0  0  0  0  0  0  0  0  0  0  0
  -32.3824   63.8147   64.1638 C   0  0  0  0  0  0  0  0  0  0  0  0
  -32.8947   62.7164   63.2477 C   0  0  0  0  0  0  0  0  0  0  0  0
  -31.9108   62.4165   62.1281 C   0  0  0  0  0  0  0  0  0  0  0  0
  -31.3528   61.0139   62.3178 C   0  0  0  0  0  0  0  0  0  0  0  0
  -30.0112   60.8498   61.6212 C   0  0  0  0  0  0  0  0  0  0  0  0
  -28.8821   60.9504   62.6231 C   0  0  0  0  0  0  0  0  0  0  0  0
  -39.7174   59.6950   63.3246 C   0  0  0  0  0  0  0  0  0  0  0  0
  -39.7912   59.1166   62.0241 O   0  0  0  0  0  0  0  0  0  0  0  0
  -38.7495   59.5393   60.8729 P   0  0  0  0  0  0  0  0  0  0  0  0
  -37.6637   60.4002   61.4721 O   0  0  0  0  0  0  0  0  0  0  0  0
  -39.4875   60.3042   59.7990 O   0  0  0  0  0  0  0  0  0  0  0  0
  -40.1821   59.7423   59.4212 H   0  0  0  0  0  0  0  0  0  0  0  0
  -38.0896   58.2169   60.2343 O   0  0  0  0  0  0  0  0  0  0  0  0
  -37.5723   57.1918   61.0793 C   0  0  0  0  0  0  0  0  0  0  0  0
  -35.7587   56.3984   59.6192 N   0  0  0  0  0  0  0  0  0  0  0  0
  -36.0629   57.0750   60.8959 C   0  0  0  0  0  0  0  0  0  0  0  0
  -36.2885   55.0472   59.3575 C   0  0  0  0  0  0  0  0  0  0  0  0
  -34.7224   56.9447   58.7246 C   0  0  0  0  0  0  0  0  0  0  0  0
  -34.6583   55.7480   60.3429 C   0  0  0  0  0  0  0  0  0  0  0  0
 49 50  1  0  0  0
 49 51  1  0  0  0
 49 52  1  0  0  0
 49 53  1  0  0  0
 33 32  1  0  0  0
 33 34  1  0  0  0
 47 43  1  0  0  0
 47 48  1  0  0  0
 43 42  1  0  0  0
 43 44  2  0  0  0
 43 45  1  0  0  0
 32 31  1  0  0  0
  2  1  1  0  0  0
  2  4  1  0  0  0
 42 41  1  0  0  0
 34 35  1  0  0  0
 23 24  1  0  0  0
 31 30  1  0  0  0
  3  4  2  0  0  0
 35 36  1  0  0  0
 30 29  1  0  0  0
 36 37  1  0  0  0
 50 53  1  0  0  0
 50 48  1  0  0  0
 37 38  1  0  0  0
 29 28  1  0  0  0
  1 24  1  0  0  0
  1 41  1  0  0  0
 51 53  1  0  0  0
 52 53  1  0  0  0
 38 39  1  0  0  0
 28 26  1  0  0  0
 24 27  1  0  0  0
  8  9  1  0  0  0
  8  7  1  0  0  0
  9 10  1  0  0  0
  7  6  1  0  0  0
 10 11  1  0  0  0
  6  4  1  0  0  0
 39 40  1  0  0  0
 11 12  1  0  0  0
 26 27  2  0  0  0
 17 18  1  0  0  0
 17 16  1  0  0  0
 18 19  1  0  0  0
 12 13  1  0  0  0
 16 15  1  0  0  0
 19 20  1  0  0  0
 15 14  1  0  0  0
 20 21  1  0  0  0
 13 14  2  0  0  0
 21 22  1  0  0  0
  2  5  1  0  0  0
 23 25  1  0  0  0
 45 46  1  0  0  0
M  CHG 1  44  -1
M  END
> <minimizedAffinity>
-8.73288

$$$$



 53 55  0  0  0  0  0  0  0  0999 V2000
  -39.0240   58.9246   63.1349 C   0  0  0  0  0  0  0  0  0  0  0  0
  -40.0459   59.3396   64.0809 N   0  0  0  0  0  0  0  0  0  0  0  0
  -41.3359   60.2752   62.5061 O   0  0  0  0  0  0  0  0  0  0  0  0
  -41.1352   59.9853   63.6732 C   0  0  0  0  0  0  0  0  0  0  0  0
  -39.9304   59.1398   65.0379 H   0  0  0  0  0  0  0  0  0  0  0  0
  -42.1383   60.3793   64.7319 C   0  0  0  0  0  0  0  0  0  0  0  0
  -41.5967   60.0546   66.1200 C   0  0  0  0  0  0  0  0  0  0  0  0
  -42.4558   58.9937   66.7991 C   0  0  0  0  0  0  0  0  0  0  0  0
  -43.0103   57.9950   65.7897 C   0  0  0  0  0  0  0  0  0  0  0  0
  -44.3511   57.4448   66.2604 C   0  0  0  0  0  0  0  0  0  0  0  0
  -45.4863   58.3858   65.8783 C   0  0  0  0  0  0  0  0  0  0  0  0
  -46.6716   58.2330   66.8233 C   0  0  0  0  0  0  0  0  0  0  0  0
  -47.6535   57.2595   66.2178 C   0  0  0  0  0  0  0  0  0  0  0  0
  -48.8321   57.6803   65.7650 C   0  0  0  0  0  0  0  0  0  0  0  0
  -49.1984   59.1413   65.8583 C   0  0  0  0  0  0  0  0  0  0  0  0
  -50.6594   59.3107   65.4675 C   0  0  0  0  0  0  0  0  0  0  0  0
  -50.7960   60.2379   64.2651 C   0  0  0  0  0  0  0  0  0  0  0  0
  -51.4909   59.5293   63.1083 C   0  0  0  0  0  0  0  0  0  0  0  0
  -50.5419   58.5832   62.3852 C   0  0  0  0  0  0  0  0  0  0  0  0
  -51.3108   57.7240   61.3886 C   0  0  0  0  0  0  0  0  0  0  0  0
  -50.3657   56.8932   60.5292 C   0  0  0  0  0  0  0  0  0  0  0  0
  -49.8701   57.6866   59.3423 C   0  0  0  0  0  0  0  0  0  0  0  0
  -37.8683   56.8426   62.6908 O   0  0  0  0  0  0  0  0  0  0  0  0
  -38.1755   57.7960   63.7150 C   0  0  0  0  0  0  0  0  0  0  0  0
  -38.6920   56.4795   62.3295 H   0  0  0  0  0  0  0  0  0  0  0  0
  -35.8070   57.6010   64.3525 C   0  0  0  0  0  0  0  0  0  0  0  0
  -36.8952   58.3627   64.2788 C   0  0  0  0  0  0  0  0  0  0  0  0
  -34.5299   58.1762   64.9157 C   0  0  0  0  0  0  0  0  0  0  0  0
  -33.7843   58.9023   63.8039 C   0  0  0  0  0  0  0  0  0  0  0  0
  -32.9758   57.9433   62.9368 C   0  0  0  0  0  0  0  0  0  0  0  0
  -31.7500   58.6361   62.3533 C   0  0  0  0  0  0  0  0  0  0  0  0
  -31.9329   60.1480   62.2878 C   0  0  0  0  0  0  0  0  0  0  0  0
  -30.6032   60.8389   62.0071 C   0  0  0  0  0  0  0  0  0  0  0  0
  -30.3874   61.9863   62.9881 C   0  0  0  0  0  0  0  0  0  0  0  0
  -30.4693   63.3501   62.3200 C   0  0  0  0  0  0  0  0  0  0  0  0
  -31.9216   63.7298   62.0863 C   0  0  0  0  0  0  0  0  0  0  0  0
  -32.7311   63.6661   63.3716 C   0  0  0  0  0  0  0  0  0  0  0  0
  -32.6601   65.0147   64.0723 C   0  0  0  0  0  0  0  0  0  0  0  0
  -32.4340   64.8537   65.5674 C   0  0  0  0  0  0  0  0  0  0  0  0
  -32.3661   66.2080   66.2383 C   0  0  0  0  0  0  0  0  0  0  0  0
  -38.1651   60.1150   62.7217 C   0  0  0  0  0  0  0  0  0  0  0  0
  -37.4540   59.7881   61.5305 O   0  0  0  0  0  0  0  0  0  0  0  0
  -38.2388   59.3661   60.1907 P   0  0  0  0  0  0  0  0  0  0  0  0
  -39.1286   60.5042   59.7525 O   0  0  0  0  0  0  0  0  0  0  0  0
  -39.0685   58.1356   60.4741 O   0  0  0  0  0  0  0  0  0  0  0  0
  -38.4874   57.4114   60.7546 H   0  0  0  0  0  0  0  0  0  0  0  0
  -37.1760   59.0416   59.0257 O   0  0  0  0  0  0  0  0  0  0  0  0
  -37.3284   57.8769   58.2177 C   0  0  0  0  0  0  0  0  0  0  0  0
  -35.4905   56.7396   59.3922 N   0  0  0  0  0  0  0  0  0  0  0  0
  -36.9111   56.6377   59.0025 C   0  0  0  0  0  0  0  0  0  0  0  0
  -34.4539   56.9129   58.3577 C   0  0  0  0  0  0  0  0  0  0  0  0
  -35.0783   56.4063   60.7676 C   0  0  0  0  0  0  0  0  0  0  0  0
  -35.4177   55.2978   59.1210 C   0  0  0  0  0  0  0  0  0  0  0  0
 49 50  1  0  0  0
 49 51  1  0  0  0
 49 52  1  0  0  0
 49 53  1  0  0  0
 33 32  1  0  0  0
 33 34  1  0  0  0
 47 43  1  0  0  0
 47 48  1  0  0  0
 43 42  1  0  0  0
 43 44  2  0  0  0
 43 45  1  0  0  0
 32 31  1  0  0  0
  2  1  1  0  0  0
  2  4  1  0  0  0
 42 41  1  0  0  0
 34 35  1  0  0  0
 23 24  1  0  0  0
 31 30  1  0  0  0
  3  4  2  0  0  0
 35 36  1  0  0  0
 30 29  1  0  0  0
 36 37  1  0  0  0
 50 53  1  0  0  0
 50 48  1  0  0  0
 37 38  1  0  0  0
 29 28  1  0  0  0
  1 24  1  0  0  0
  1 41  1  0  0  0
 51 53  1  0  0  0
 52 53  1  0  0  0
 38 39  1  0  0  0
 28 26  1  0  0  0
 24 27  1  0  0  0
  8  9  1  0  0  0
  8  7  1  0  0  0
  9 10  1  0  0  0
  7  6  1  0  0  0
 10 11  1  0  0  0
  6  4  1  0  0  0
 39 40  1  0  0  0
 11 12  1  0  0  0
 26 27  2  0  0  0
 17 18  1  0  0  0
 17 16  1  0  0  0
 18 19  1  0  0  0
 12 13  1  0  0  0
 16 15  1  0  0  0
 19 20  1  0  0  0
 15 14  1  0  0  0
 20 21  1  0  0  0
 13 14  2  0  0  0
 21 22  1  0  0  0
  2  5  1  0  0  0
 23 25  1  0  0  0
 45 46  1  0  0  0
M  CHG 1  44  -1
M  END
> <minimizedAffinity>
-8.16942

$$$$



 53 55  0  0  0  0  0  0  0  0999 V2000
  -38.6904   58.5882   62.9976 C   0  0  0  0  0  0  0  0  0  0  0  0
  -39.8527   58.7545   63.8536 N   0  0  0  0  0  0  0  0  0  0  0  0
  -40.5741   60.5796   62.7731 O   0  0  0  0  0  0  0  0  0  0  0  0
  -40.7112   59.7515   63.6574 C   0  0  0  0  0  0  0  0  0  0  0  0
  -40.0072   58.1196   64.5901 H   0  0  0  0  0  0  0  0  0  0  0  0
  -41.8863   59.8440   64.6022 C   0  0  0  0  0  0  0  0  0  0  0  0
  -41.4023   60.1150   66.0227 C   0  0  0  0  0  0  0  0  0  0  0  0
  -42.4205   59.6181   67.0430 C   0  0  0  0  0  0  0  0  0  0  0  0
  -43.5754   58.8872   66.3680 C   0  0  0  0  0  0  0  0  0  0  0  0
  -44.8629   59.0685   67.1626 C   0  0  0  0  0  0  0  0  0  0  0  0
  -46.0658   59.1531   66.2319 C   0  0  0  0  0  0  0  0  0  0  0  0
  -46.3685   57.8014   65.5972 C   0  0  0  0  0  0  0  0  0  0  0  0
  -45.8582   57.8065   64.1766 C   0  0  0  0  0  0  0  0  0  0  0  0
  -46.7048   57.8951   63.1536 C   0  0  0  0  0  0  0  0  0  0  0  0
  -48.1893   57.9877   63.4084 C   0  0  0  0  0  0  0  0  0  0  0  0
  -48.9068   58.1925   62.0820 C   0  0  0  0  0  0  0  0  0  0  0  0
  -50.3611   57.7452   62.1766 C   0  0  0  0  0  0  0  0  0  0  0  0
  -51.2980   58.9468   62.2168 C   0  0  0  0  0  0  0  0  0  0  0  0
  -50.7213   60.0735   63.0634 C   0  0  0  0  0  0  0  0  0  0  0  0
  -51.4361   60.1430   64.4075 C   0  0  0  0  0  0  0  0  0  0  0  0
  -50.5199   59.7078   65.5447 C   0  0  0  0  0  0  0  0  0  0  0  0
  -50.6182   58.2187   65.7832 C   0  0  0  0  0  0  0  0  0  0  0  0
  -37.2605   56.6737   62.6014 O   0  0  0  0  0  0  0  0  0  0  0  0
  -37.7078   57.5913   63.6064 C   0  0  0  0  0  0  0  0  0  0  0  0
  -38.0227   56.1987   62.2349 H   0  0  0  0  0  0  0  0  0  0  0  0
  -35.2925   58.0302   63.7736 C   0  0  0  0  0  0  0  0  0  0  0  0
  -36.5233   58.3318   64.1783 C   0  0  0  0  0  0  0  0  0  0  0  0
  -34.1135   58.7771   64.3490 C   0  0  0  0  0  0  0  0  0  0  0  0
  -33.7512   59.9222   63.4127 C   0  0  0  0  0  0  0  0  0  0  0  0
  -32.4770   59.6358   62.6256 C   0  0  0  0  0  0  0  0  0  0  0  0
  -31.5994   60.8788   62.5362 C   0  0  0  0  0  0  0  0  0  0  0  0
  -32.4311   62.1548   62.4760 C   0  0  0  0  0  0  0  0  0  0  0  0
  -31.6328   63.3425   63.0017 C   0  0  0  0  0  0  0  0  0  0  0  0
  -31.5089   63.2646   64.5197 C   0  0  0  0  0  0  0  0  0  0  0  0
  -32.4749   64.1973   65.2338 C   0  0  0  0  0  0  0  0  0  0  0  0
  -33.8641   63.5833   65.2668 C   0  0  0  0  0  0  0  0  0  0  0  0
  -34.2210   63.0796   66.6563 C   0  0  0  0  0  0  0  0  0  0  0  0
  -35.7153   62.7999   66.7161 C   0  0  0  0  0  0  0  0  0  0  0  0
  -36.0782   61.5453   65.9374 C   0  0  0  0  0  0  0  0  0  0  0  0
  -37.5375   61.2026   66.1417 C   0  0  0  0  0  0  0  0  0  0  0  0
  -38.0277   59.9355   62.7309 C   0  0  0  0  0  0  0  0  0  0  0  0
  -37.4189   59.9108   61.4424 O   0  0  0  0  0  0  0  0  0  0  0  0
  -38.2249   59.3694   60.1593 P   0  0  0  0  0  0  0  0  0  0  0  0
  -39.2254   60.4114   59.7206 O   0  0  0  0  0  0  0  0  0  0  0  0
  -38.9355   58.0886   60.5299 O   0  0  0  0  0  0  0  0  0  0  0  0
  -38.2840   57.4268   60.8099 H   0  0  0  0  0  0  0  0  0  0  0  0
  -37.1920   59.0833   58.9580 O   0  0  0  0  0  0  0  0  0  0  0  0
  -37.0601   57.7692   58.4210 C   0  0  0  0  0  0  0  0  0  0  0  0
  -34.9484   56.9468   59.3775 N   0  0  0  0  0  0  0  0  0  0  0  0
  -36.4196   56.8452   59.4514 C   0  0  0  0  0  0  0  0  0  0  0  0
  -34.2530   56.6576   58.1095 C   0  0  0  0  0  0  0  0  0  0  0  0
  -34.1558   57.0734   60.6139 C   0  0  0  0  0  0  0  0  0  0  0  0
  -34.9372   55.4998   59.6299 C   0  0  0  0  0  0  0  0  0  0  0  0
 49 50  1  0  0  0
 49 51  1  0  0  0
 49 52  1  0  0  0
 49 53  1  0  0  0
 33 32  1  0  0  0
 33 34  1  0  0  0
 47 43  1  0  0  0
 47 48  1  0  0  0
 43 42  1  0  0  0
 43 44  2  0  0  0
 43 45  1  0  0  0
 32 31  1  0  0  0
  2  1  1  0  0  0
  2  4  1  0  0  0
 42 41  1  0  0  0
 34 35  1  0  0  0
 23 24  1  0  0  0
 31 30  1  0  0  0
  3  4  2  0  0  0
 35 36  1  0  0  0
 30 29  1  0  0  0
 36 37  1  0  0  0
 50 53  1  0  0  0
 50 48  1  0  0  0
 37 38  1  0  0  0
 29 28  1  0  0  0
  1 24  1  0  0  0
  1 41  1  0  0  0
 51 53  1  0  0  0
 52 53  1  0  0  0
 38 39  1  0  0  0
 28 26  1  0  0  0
 24 27  1  0  0  0
  8  9  1  0  0  0
  8  7  1  0  0  0
  9 10  1  0  0  0
  7  6  1  0  0  0
 10 11  1  0  0  0
  6  4  1  0  0  0
 39 40  1  0  0  0
 11 12  1  0  0  0
 26 27  2  0  0  0
 17 18  1  0  0  0
 17 16  1  0  0  0
 18 19  1  0  0  0
 12 13  1  0  0  0
 16 15  1  0  0  0
 19 20  1  0  0  0
 15 14  1  0  0  0
 20 21  1  0  0  0
 13 14  2  0  0  0
 21 22  1  0  0  0
  2  5  1  0  0  0
 23 25  1  0  0  0
 45 46  1  0  0  0
M  CHG 1  44  -1
M  END
> <minimizedAffinity>
-7.05293

$$$$
