


 37 36  0  0  0  0  0  0  0  0999 V2000
  -44.4470   60.2783   65.1235 O   0  0  0  0  0  0  0  0  0  0  0  0
  -43.4710   59.5970   65.2027 C   0  0  0  0  0  0  0  0  0  0  0  0
  -43.4848   58.1250   65.4558 C   0  0  0  0  0  0  0  0  0  0  0  0
  -44.6571   57.4231   64.7967 C   0  0  0  0  0  0  0  0  0  0  0  0
  -45.6812   56.9244   65.7931 C   0  0  0  0  0  0  0  0  0  0  0  0
  -46.7990   57.8983   66.0827 C   0  0  0  0  0  0  0  0  0  0  0  0
  -47.5323   58.3691   64.8527 C   0  0  0  0  0  0  0  0  0  0  0  0
  -48.8547   57.6734   64.6714 C   0  0  0  0  0  0  0  0  0  0  0  0
  -50.0317   58.3517   65.3075 C   0  0  0  0  0  0  0  0  0  0  0  0
  -50.1341   59.7789   64.9704 C   0  0  0  0  0  0  0  0  0  0  0  0
  -50.6738   60.3206   63.9008 C   0  0  0  0  0  0  0  0  0  0  0  0
  -51.3403   59.6333   62.7660 C   0  0  0  0  0  0  0  0  0  0  0  0
  -50.4175   59.1253   61.6771 C   0  0  0  0  0  0  0  0  0  0  0  0
  -50.5531   57.6457   61.4437 C   0  0  0  0  0  0  0  0  0  0  0  0
  -50.2758   57.2034   60.0297 C   0  0  0  0  0  0  0  0  0  0  0  0
  -49.0175   56.3712   59.9168 C   0  0  0  0  0  0  0  0  0  0  0  0
  -48.1471   56.6964   58.7351 C   0  0  0  0  0  0  0  0  0  0  0  0
  -47.6030   55.4980   58.0665 C   0  0  0  0  0  0  0  0  0  0  0  0
  -47.0436   55.7746   56.7448 C   0  0  0  0  0  0  0  0  0  0  0  0
  -42.2284   60.0645   65.0830 O   0  0  0  0  0  0  0  0  0  0  0  0
  -41.9217   60.8529   63.9115 C   0  0  0  0  0  0  0  0  0  0  0  0
  -40.7149   61.6979   64.2492 C   0  0  0  0  0  0  0  0  0  0  0  0
  -40.8055   62.1370   65.6046 O   0  0  0  0  0  0  0  0  0  0  0  0
  -40.7802   61.3685   66.1959 H   0  0  0  0  0  0  0  0  0  0  0  0
  -39.3828   61.0139   64.0588 C   0  0  0  0  0  0  0  0  0  0  0  0
  -39.5051   60.0625   62.9825 O   0  0  0  0  0  0  0  0  0  0  0  0
  -38.8042   60.3601   61.5862 P   0  0  0  0  0  0  0  0  0  0  0  0
  -39.8769   60.6818   60.6233 O   0  0  0  0  0  0  0  0  0  0  0  0
  -37.7457   61.3563   61.8431 O   0  0  0  0  0  0  0  0  0  0  0  0
  -38.1484   62.1856   62.1449 H   0  0  0  0  0  0  0  0  0  0  0  0
  -38.0889   59.0310   61.0978 O   0  0  0  0  0  0  0  0  0  0  0  0
  -37.7389   58.0093   62.0608 C   0  0  0  0  0  0  0  0  0  0  0  0
  -36.3244   58.3180   62.4963 C   0  0  0  0  0  0  0  0  0  0  0  0
  -36.0933   58.4288   63.9903 N   0  0  0  0  0  0  0  0  0  0  0  0
  -34.9162   57.6112   64.4156 C   0  0  0  0  0  0  0  0  0  0  0  0
  -37.3029   57.9411   64.7212 C   0  0  0  0  0  0  0  0  0  0  0  0
  -35.8395   59.8581   64.3537 C   0  0  0  0  0  0  0  0  0  0  0  0
 34 33  1  0  0  0
 34 35  1  0  0  0
 34 36  1  0  0  0
 34 37  1  0  0  0
 22 23  1  0  0  0
 22 25  1  0  0  0
 22 21  1  0  0  0
 27 26  1  0  0  0
 27 28  2  0  0  0
 27 31  1  0  0  0
 27 29  1  0  0  0
 25 26  1  0  0  0
 32 33  1  0  0  0
 32 31  1  0  0  0
 20 21  1  0  0  0
 20  2  1  0  0  0
  1  2  2  0  0  0
  2  3  1  0  0  0
  3  4  1  0  0  0
  4  5  1  0  0  0
  5  6  1  0  0  0
  6  7  1  0  0  0
  7  8  1  0  0  0
  8  9  1  0  0  0
  9 10  1  0  0  0
 10 11  2  0  0  0
 11 12  1  0  0  0
 12 13  1  0  0  0
 13 14  1  0  0  0
 14 15  1  0  0  0
 15 16  1  0  0  0
 16 17  1  0  0  0
 17 18  1  0  0  0
 18 19  1  0  0  0
 23 24  1  0  0  0
 29 30  1  0  0  0
M  CHG 1  28  -1
M  END
> <minimizedAffinity>
-8.37228

> <CNNscore>
0.8724765182

> <CNNaffinity>
6.9988684654

> <CNN_VS>
6.1063485146

> <CNNaffinity_variance>
0.2863293290

$$$$



 37 36  0  0  0  0  0  0  0  0999 V2000
  -42.6638   60.9662   63.9994 O   0  0  0  0  0  0  0  0  0  0  0  0
  -41.7456   60.3173   64.3979 C   0  0  0  0  0  0  0  0  0  0  0  0
  -41.8798   59.0563   65.1871 C   0  0  0  0  0  0  0  0  0  0  0  0
  -43.2436   58.9069   65.8346 C   0  0  0  0  0  0  0  0  0  0  0  0
  -44.2107   58.1030   64.9926 C   0  0  0  0  0  0  0  0  0  0  0  0
  -45.1641   57.2405   65.7857 C   0  0  0  0  0  0  0  0  0  0  0  0
  -46.5931   57.7190   65.7507 C   0  0  0  0  0  0  0  0  0  0  0  0
  -46.7849   58.8864   64.8202 C   0  0  0  0  0  0  0  0  0  0  0  0
  -47.8911   59.8297   65.1900 C   0  0  0  0  0  0  0  0  0  0  0  0
  -49.1618   59.1512   65.4836 C   0  0  0  0  0  0  0  0  0  0  0  0
  -50.3458   59.3920   64.9651 C   0  0  0  0  0  0  0  0  0  0  0  0
  -50.7036   60.3963   63.9318 C   0  0  0  0  0  0  0  0  0  0  0  0
  -50.4333   59.9842   62.4992 C   0  0  0  0  0  0  0  0  0  0  0  0
  -50.8268   58.5597   62.2200 C   0  0  0  0  0  0  0  0  0  0  0  0
  -49.8755   57.8077   61.3249 C   0  0  0  0  0  0  0  0  0  0  0  0
  -50.3598   57.7329   59.8936 C   0  0  0  0  0  0  0  0  0  0  0  0
  -49.3950   57.0987   58.9309 C   0  0  0  0  0  0  0  0  0  0  0  0
  -48.1532   56.6294   59.5765 C   0  0  0  0  0  0  0  0  0  0  0  0
  -47.5564   55.4716   58.9136 C   0  0  0  0  0  0  0  0  0  0  0  0
  -40.4676   60.6387   64.1969 O   0  0  0  0  0  0  0  0  0  0  0  0
  -40.1049   61.1516   62.8956 C   0  0  0  0  0  0  0  0  0  0  0  0
  -39.0436   60.2320   62.3366 C   0  0  0  0  0  0  0  0  0  0  0  0
  -38.2750   60.9316   61.3579 O   0  0  0  0  0  0  0  0  0  0  0  0
  -37.8081   61.6694   61.7803 H   0  0  0  0  0  0  0  0  0  0  0  0
  -38.0970   59.6526   63.3597 C   0  0  0  0  0  0  0  0  0  0  0  0
  -36.8410   59.3661   62.7124 O   0  0  0  0  0  0  0  0  0  0  0  0
  -36.6581   57.9990   61.9206 P   0  0  0  0  0  0  0  0  0  0  0  0
  -37.6852   57.0656   62.4256 O   0  0  0  0  0  0  0  0  0  0  0  0
  -36.6370   58.3367   60.4838 O   0  0  0  0  0  0  0  0  0  0  0  0
  -37.4963   58.7053   60.2257 H   0  0  0  0  0  0  0  0  0  0  0  0
  -35.2331   57.4033   62.2834 O   0  0  0  0  0  0  0  0  0  0  0  0
  -34.6638   57.6508   63.5904 C   0  0  0  0  0  0  0  0  0  0  0  0
  -33.7003   58.8019   63.4111 C   0  0  0  0  0  0  0  0  0  0  0  0
  -32.3755   58.4695   62.7537 N   0  0  0  0  0  0  0  0  0  0  0  0
  -32.5176   58.3834   61.2680 C   0  0  0  0  0  0  0  0  0  0  0  0
  -31.8803   57.1541   63.2633 C   0  0  0  0  0  0  0  0  0  0  0  0
  -31.3741   59.5334   63.0777 C   0  0  0  0  0  0  0  0  0  0  0  0
 34 33  1  0  0  0
 34 35  1  0  0  0
 34 36  1  0  0  0
 34 37  1  0  0  0
 22 23  1  0  0  0
 22 25  1  0  0  0
 22 21  1  0  0  0
 27 26  1  0  0  0
 27 28  2  0  0  0
 27 31  1  0  0  0
 27 29  1  0  0  0
 25 26  1  0  0  0
 32 33  1  0  0  0
 32 31  1  0  0  0
 20 21  1  0  0  0
 20  2  1  0  0  0
  1  2  2  0  0  0
  2  3  1  0  0  0
  3  4  1  0  0  0
  4  5  1  0  0  0
  5  6  1  0  0  0
  6  7  1  0  0  0
  7  8  1  0  0  0
  8  9  1  0  0  0
  9 10  1  0  0  0
 10 11  2  0  0  0
 11 12  1  0  0  0
 12 13  1  0  0  0
 13 14  1  0  0  0
 14 15  1  0  0  0
 15 16  1  0  0  0
 16 17  1  0  0  0
 17 18  1  0  0  0
 18 19  1  0  0  0
 23 24  1  0  0  0
 29 30  1  0  0  0
M  CHG 1  28  -1
M  END
> <minimizedAffinity>
-7.35458

> <CNNscore>
0.7024238110

> <CNNaffinity>
6.4281082153

> <CNN_VS>
4.5152564049

> <CNNaffinity_variance>
0.4422992170

$$$$



 37 36  0  0  0  0  0  0  0  0999 V2000
  -41.9537   58.2801   66.5660 O   0  0  0  0  0  0  0  0  0  0  0  0
  -42.3323   59.2111   65.9234 C   0  0  0  0  0  0  0  0  0  0  0  0
  -43.7640   59.6092   65.7725 C   0  0  0  0  0  0  0  0  0  0  0  0
  -44.5051   58.7719   64.7473 C   0  0  0  0  0  0  0  0  0  0  0  0
  -44.8901   57.4049   65.2702 C   0  0  0  0  0  0  0  0  0  0  0  0
  -46.3681   57.2255   65.5253 C   0  0  0  0  0  0  0  0  0  0  0  0
  -47.2456   58.1125   64.6794 C   0  0  0  0  0  0  0  0  0  0  0  0
  -48.2446   58.8828   65.5003 C   0  0  0  0  0  0  0  0  0  0  0  0
  -49.6848   58.5627   65.2288 C   0  0  0  0  0  0  0  0  0  0  0  0
  -50.5483   59.7517   65.1873 C   0  0  0  0  0  0  0  0  0  0  0  0
  -51.1799   60.2567   64.1507 C   0  0  0  0  0  0  0  0  0  0  0  0
  -51.2039   59.7448   62.7572 C   0  0  0  0  0  0  0  0  0  0  0  0
  -50.0648   60.2073   61.8718 C   0  0  0  0  0  0  0  0  0  0  0  0
  -49.6616   59.1739   60.8561 C   0  0  0  0  0  0  0  0  0  0  0  0
  -49.5800   57.7662   61.3886 C   0  0  0  0  0  0  0  0  0  0  0  0
  -49.6957   56.7242   60.2980 C   0  0  0  0  0  0  0  0  0  0  0  0
  -49.4582   57.2365   58.9048 C   0  0  0  0  0  0  0  0  0  0  0  0
  -48.0975   56.9554   58.4060 C   0  0  0  0  0  0  0  0  0  0  0  0
  -48.0793   56.3801   57.0626 C   0  0  0  0  0  0  0  0  0  0  0  0
  -41.5216   60.0213   65.2428 O   0  0  0  0  0  0  0  0  0  0  0  0
  -40.1162   59.6868   65.2110 C   0  0  0  0  0  0  0  0  0  0  0  0
  -39.3517   60.9891   65.1475 C   0  0  0  0  0  0  0  0  0  0  0  0
  -40.0980   62.0118   65.8073 O   0  0  0  0  0  0  0  0  0  0  0  0
  -40.1901   61.7897   66.7470 H   0  0  0  0  0  0  0  0  0  0  0  0
  -37.9677   60.9473   65.7486 C   0  0  0  0  0  0  0  0  0  0  0  0
  -37.4414   62.2892   65.7822 O   0  0  0  0  0  0  0  0  0  0  0  0
  -35.9966   62.5825   65.1854 P   0  0  0  0  0  0  0  0  0  0  0  0
  -36.1488   62.6998   63.7211 O   0  0  0  0  0  0  0  0  0  0  0  0
  -35.4436   63.7212   65.9447 O   0  0  0  0  0  0  0  0  0  0  0  0
  -35.9856   64.5097   65.7854 H   0  0  0  0  0  0  0  0  0  0  0  0
  -35.0734   61.3273   65.4837 O   0  0  0  0  0  0  0  0  0  0  0  0
  -34.6092   60.5021   64.3895 C   0  0  0  0  0  0  0  0  0  0  0  0
  -34.8190   59.0717   64.8318 C   0  0  0  0  0  0  0  0  0  0  0  0
  -35.7530   58.2373   63.9779 N   0  0  0  0  0  0  0  0  0  0  0  0
  -36.5248   59.0949   63.0272 C   0  0  0  0  0  0  0  0  0  0  0  0
  -36.7190   57.5101   64.8573 C   0  0  0  0  0  0  0  0  0  0  0  0
  -34.9586   57.2440   63.1895 C   0  0  0  0  0  0  0  0  0  0  0  0
 34 33  1  0  0  0
 34 35  1  0  0  0
 34 36  1  0  0  0
 34 37  1  0  0  0
 22 23  1  0  0  0
 22 25  1  0  0  0
 22 21  1  0  0  0
 27 26  1  0  0  0
 27 28  2  0  0  0
 27 31  1  0  0  0
 27 29  1  0  0  0
 25 26  1  0  0  0
 32 33  1  0  0  0
 32 31  1  0  0  0
 20 21  1  0  0  0
 20  2  1  0  0  0
  1  2  2  0  0  0
  2  3  1  0  0  0
  3  4  1  0  0  0
  4  5  1  0  0  0
  5  6  1  0  0  0
  6  7  1  0  0  0
  7  8  1  0  0  0
  8  9  1  0  0  0
  9 10  1  0  0  0
 10 11  2  0  0  0
 11 12  1  0  0  0
 12 13  1  0  0  0
 13 14  1  0  0  0
 14 15  1  0  0  0
 15 16  1  0  0  0
 16 17  1  0  0  0
 17 18  1  0  0  0
 18 19  1  0  0  0
 23 24  1  0  0  0
 29 30  1  0  0  0
M  CHG 1  28  -1
M  END
> <minimizedAffinity>
-8.15175

> <CNNscore>
0.6980185509

> <CNNaffinity>
6.5856847763

> <CNN_VS>
4.5969300270

> <CNNaffinity_variance>
0.2139735967

$$$$



 37 36  0  0  0  0  0  0  0  0999 V2000
  -39.3601   60.5418   60.5403 O   0  0  0  0  0  0  0  0  0  0  0  0
  -39.0762   60.0530   61.5908 C   0  0  0  0  0  0  0  0  0  0  0  0
  -39.4944   60.5967   62.9177 C   0  0  0  0  0  0  0  0  0  0  0  0
  -40.8606   61.2552   62.8824 C   0  0  0  0  0  0  0  0  0  0  0  0
  -41.4904   61.3795   64.2529 C   0  0  0  0  0  0  0  0  0  0  0  0
  -41.9875   60.0767   64.8340 C   0  0  0  0  0  0  0  0  0  0  0  0
  -43.4308   59.7786   64.5174 C   0  0  0  0  0  0  0  0  0  0  0  0
  -44.2239   59.4140   65.7436 C   0  0  0  0  0  0  0  0  0  0  0  0
  -45.6766   59.1235   65.5081 C   0  0  0  0  0  0  0  0  0  0  0  0
  -46.4718   60.3254   65.2181 C   0  0  0  0  0  0  0  0  0  0  0  0
  -47.7502   60.3967   64.9193 C   0  0  0  0  0  0  0  0  0  0  0  0
  -48.7285   59.2843   64.8193 C   0  0  0  0  0  0  0  0  0  0  0  0
  -48.8819   58.6713   63.4423 C   0  0  0  0  0  0  0  0  0  0  0  0
  -50.2880   58.2175   63.1614 C   0  0  0  0  0  0  0  0  0  0  0  0
  -50.7161   58.3486   61.7222 C   0  0  0  0  0  0  0  0  0  0  0  0
  -50.1602   57.2467   60.8473 C   0  0  0  0  0  0  0  0  0  0  0  0
  -50.1205   57.5635   59.3784 C   0  0  0  0  0  0  0  0  0  0  0  0
  -48.9370   57.0056   58.6950 C   0  0  0  0  0  0  0  0  0  0  0  0
  -48.3198   55.8949   59.4174 C   0  0  0  0  0  0  0  0  0  0  0  0
  -38.3352   58.9526   61.7209 O   0  0  0  0  0  0  0  0  0  0  0  0
  -38.4993   58.1762   62.9284 C   0  0  0  0  0  0  0  0  0  0  0  0
  -37.3737   57.1681   62.9638 C   0  0  0  0  0  0  0  0  0  0  0  0
  -36.9376   56.8947   61.6322 O   0  0  0  0  0  0  0  0  0  0  0  0
  -36.5736   57.7032   61.2387 H   0  0  0  0  0  0  0  0  0  0  0  0
  -36.1738   57.5789   63.7824 C   0  0  0  0  0  0  0  0  0  0  0  0
  -35.7900   58.9139   63.3960 O   0  0  0  0  0  0  0  0  0  0  0  0
  -35.8534   60.0905   64.4641 P   0  0  0  0  0  0  0  0  0  0  0  0
  -36.1940   61.3250   63.7285 O   0  0  0  0  0  0  0  0  0  0  0  0
  -36.7407   59.6332   65.5517 O   0  0  0  0  0  0  0  0  0  0  0  0
  -37.6387   59.5102   65.2062 H   0  0  0  0  0  0  0  0  0  0  0  0
  -34.4054   60.2737   65.0859 O   0  0  0  0  0  0  0  0  0  0  0  0
  -33.2489   60.2944   64.2165 C   0  0  0  0  0  0  0  0  0  0  0  0
  -32.6716   58.8979   64.2621 C   0  0  0  0  0  0  0  0  0  0  0  0
  -31.8852   58.4587   63.0430 N   0  0  0  0  0  0  0  0  0  0  0  0
  -30.7648   59.4054   62.7545 C   0  0  0  0  0  0  0  0  0  0  0  0
  -32.7902   58.4129   61.8537 C   0  0  0  0  0  0  0  0  0  0  0  0
  -31.3119   57.0968   63.2800 C   0  0  0  0  0  0  0  0  0  0  0  0
 34 33  1  0  0  0
 34 35  1  0  0  0
 34 36  1  0  0  0
 34 37  1  0  0  0
 22 23  1  0  0  0
 22 25  1  0  0  0
 22 21  1  0  0  0
 27 26  1  0  0  0
 27 28  2  0  0  0
 27 31  1  0  0  0
 27 29  1  0  0  0
 25 26  1  0  0  0
 32 33  1  0  0  0
 32 31  1  0  0  0
 20 21  1  0  0  0
 20  2  1  0  0  0
  1  2  2  0  0  0
  2  3  1  0  0  0
  3  4  1  0  0  0
  4  5  1  0  0  0
  5  6  1  0  0  0
  6  7  1  0  0  0
  7  8  1  0  0  0
  8  9  1  0  0  0
  9 10  1  0  0  0
 10 11  2  0  0  0
 11 12  1  0  0  0
 12 13  1  0  0  0
 13 14  1  0  0  0
 14 15  1  0  0  0
 15 16  1  0  0  0
 16 17  1  0  0  0
 17 18  1  0  0  0
 18 19  1  0  0  0
 23 24  1  0  0  0
 29 30  1  0  0  0
M  CHG 1  28  -1
M  END
> <minimizedAffinity>
-7.18739

> <CNNscore>
0.6497308016

> <CNNaffinity>
6.3555402756

> <CNN_VS>
4.1293902397

> <CNNaffinity_variance>
0.2826849222

$$$$



 37 36  0  0  0  0  0  0  0  0999 V2000
  -41.8544   59.6552   67.1763 O   0  0  0  0  0  0  0  0  0  0  0  0
  -41.7350   60.2505   66.1495 C   0  0  0  0  0  0  0  0  0  0  0  0
  -42.7993   60.3626   65.1075 C   0  0  0  0  0  0  0  0  0  0  0  0
  -43.6155   59.0926   64.9576 C   0  0  0  0  0  0  0  0  0  0  0  0
  -45.0954   59.3131   65.1847 C   0  0  0  0  0  0  0  0  0  0  0  0
  -45.9212   58.0483   65.2040 C   0  0  0  0  0  0  0  0  0  0  0  0
  -47.3006   58.2289   65.7843 C   0  0  0  0  0  0  0  0  0  0  0  0
  -48.3863   57.8589   64.8097 C   0  0  0  0  0  0  0  0  0  0  0  0
  -49.7767   58.2489   65.2159 C   0  0  0  0  0  0  0  0  0  0  0  0
  -50.0388   59.6897   65.0874 C   0  0  0  0  0  0  0  0  0  0  0  0
  -50.7016   60.3094   64.1359 C   0  0  0  0  0  0  0  0  0  0  0  0
  -51.3772   59.7132   62.9558 C   0  0  0  0  0  0  0  0  0  0  0  0
  -50.4774   59.3970   61.7787 C   0  0  0  0  0  0  0  0  0  0  0  0
  -50.2019   57.9253   61.6365 C   0  0  0  0  0  0  0  0  0  0  0  0
  -50.7566   57.2992   60.3827 C   0  0  0  0  0  0  0  0  0  0  0  0
  -49.7357   57.2252   59.2688 C   0  0  0  0  0  0  0  0  0  0  0  0
  -48.8116   56.0413   59.3342 C   0  0  0  0  0  0  0  0  0  0  0  0
  -47.3937   56.3986   59.1319 C   0  0  0  0  0  0  0  0  0  0  0  0
  -47.1092   56.9082   57.7919 C   0  0  0  0  0  0  0  0  0  0  0  0
  -40.6239   60.8930   65.7896 O   0  0  0  0  0  0  0  0  0  0  0  0
  -39.5128   60.0955   65.3232 C   0  0  0  0  0  0  0  0  0  0  0  0
  -38.3123   61.0104   65.2452 C   0  0  0  0  0  0  0  0  0  0  0  0
  -38.6649   62.3018   65.7412 O   0  0  0  0  0  0  0  0  0  0  0  0
  -38.9016   62.2343   66.6794 H   0  0  0  0  0  0  0  0  0  0  0  0
  -37.0932   60.5297   65.9943 C   0  0  0  0  0  0  0  0  0  0  0  0
  -36.6519   61.5818   66.8759 O   0  0  0  0  0  0  0  0  0  0  0  0
  -35.3303   62.3958   66.5292 P   0  0  0  0  0  0  0  0  0  0  0  0
  -35.7561   63.6974   65.9764 O   0  0  0  0  0  0  0  0  0  0  0  0
  -34.4830   62.3699   67.7377 O   0  0  0  0  0  0  0  0  0  0  0  0
  -34.9309   62.8424   68.4568 H   0  0  0  0  0  0  0  0  0  0  0  0
  -34.5496   61.6116   65.3922 O   0  0  0  0  0  0  0  0  0  0  0  0
  -34.3313   62.2406   64.1075 C   0  0  0  0  0  0  0  0  0  0  0  0
  -32.9623   62.8773   64.1856 C   0  0  0  0  0  0  0  0  0  0  0  0
  -32.8593   64.3059   63.6893 N   0  0  0  0  0  0  0  0  0  0  0  0
  -31.6143   64.5092   62.8870 C   0  0  0  0  0  0  0  0  0  0  0  0
  -32.8336   65.2402   64.8562 C   0  0  0  0  0  0  0  0  0  0  0  0
  -34.0410   64.6238   62.8280 C   0  0  0  0  0  0  0  0  0  0  0  0
 34 33  1  0  0  0
 34 35  1  0  0  0
 34 36  1  0  0  0
 34 37  1  0  0  0
 22 23  1  0  0  0
 22 25  1  0  0  0
 22 21  1  0  0  0
 27 26  1  0  0  0
 27 28  2  0  0  0
 27 31  1  0  0  0
 27 29  1  0  0  0
 25 26  1  0  0  0
 32 33  1  0  0  0
 32 31  1  0  0  0
 20 21  1  0  0  0
 20  2  1  0  0  0
  1  2  2  0  0  0
  2  3  1  0  0  0
  3  4  1  0  0  0
  4  5  1  0  0  0
  5  6  1  0  0  0
  6  7  1  0  0  0
  7  8  1  0  0  0
  8  9  1  0  0  0
  9 10  1  0  0  0
 10 11  2  0  0  0
 11 12  1  0  0  0
 12 13  1  0  0  0
 13 14  1  0  0  0
 14 15  1  0  0  0
 15 16  1  0  0  0
 16 17  1  0  0  0
 17 18  1  0  0  0
 18 19  1  0  0  0
 23 24  1  0  0  0
 29 30  1  0  0  0
M  CHG 1  28  -1
M  END
> <minimizedAffinity>
-8.22935

> <CNNscore>
0.6418954730

> <CNNaffinity>
6.1883687973

> <CNN_VS>
3.9722859859

> <CNNaffinity_variance>
0.4504088759

$$$$



 37 36  0  0  0  0  0  0  0  0999 V2000
  -41.6242   60.7033   63.5179 O   0  0  0  0  0  0  0  0  0  0  0  0
  -40.7964   60.4315   64.3326 C   0  0  0  0  0  0  0  0  0  0  0  0
  -40.7545   59.1521   65.1023 C   0  0  0  0  0  0  0  0  0  0  0  0
  -41.9938   58.9310   65.9489 C   0  0  0  0  0  0  0  0  0  0  0  0
  -42.5293   57.5188   65.8520 C   0  0  0  0  0  0  0  0  0  0  0  0
  -44.0233   57.4284   65.6479 C   0  0  0  0  0  0  0  0  0  0  0  0
  -44.5772   58.4791   64.7197 C   0  0  0  0  0  0  0  0  0  0  0  0
  -45.3904   59.5162   65.4466 C   0  0  0  0  0  0  0  0  0  0  0  0
  -46.8393   59.5829   65.0640 C   0  0  0  0  0  0  0  0  0  0  0  0
  -47.5085   58.2742   65.0849 C   0  0  0  0  0  0  0  0  0  0  0  0
  -48.3764   57.7957   64.2209 C   0  0  0  0  0  0  0  0  0  0  0  0
  -48.8892   58.4432   62.9872 C   0  0  0  0  0  0  0  0  0  0  0  0
  -50.3217   58.1111   62.6223 C   0  0  0  0  0  0  0  0  0  0  0  0
  -50.4890   57.7833   61.1640 C   0  0  0  0  0  0  0  0  0  0  0  0
  -49.2852   57.1443   60.5204 C   0  0  0  0  0  0  0  0  0  0  0  0
  -49.3712   57.1318   59.0100 C   0  0  0  0  0  0  0  0  0  0  0  0
  -48.0460   57.1254   58.3003 C   0  0  0  0  0  0  0  0  0  0  0  0
  -47.4881   55.7703   58.1228 C   0  0  0  0  0  0  0  0  0  0  0  0
  -47.4964   55.3167   56.7334 C   0  0  0  0  0  0  0  0  0  0  0  0
  -39.7956   61.2437   64.6727 O   0  0  0  0  0  0  0  0  0  0  0  0
  -38.6815   60.6665   65.3894 C   0  0  0  0  0  0  0  0  0  0  0  0
  -37.6257   61.7416   65.5079 C   0  0  0  0  0  0  0  0  0  0  0  0
  -36.8762   61.5426   66.7066 O   0  0  0  0  0  0  0  0  0  0  0  0
  -36.4055   60.6959   66.6568 H   0  0  0  0  0  0  0  0  0  0  0  0
  -36.6600   61.8188   64.3503 C   0  0  0  0  0  0  0  0  0  0  0  0
  -36.4562   63.2061   64.0145 O   0  0  0  0  0  0  0  0  0  0  0  0
  -35.0496   63.8879   64.3078 P   0  0  0  0  0  0  0  0  0  0  0  0
  -34.0816   63.3111   63.3531 O   0  0  0  0  0  0  0  0  0  0  0  0
  -35.2743   65.3468   64.3115 O   0  0  0  0  0  0  0  0  0  0  0  0
  -35.5536   65.6332   63.4278 H   0  0  0  0  0  0  0  0  0  0  0  0
  -34.5970   63.4793   65.7724 O   0  0  0  0  0  0  0  0  0  0  0  0
  -33.6677   64.3195   66.4965 C   0  0  0  0  0  0  0  0  0  0  0  0
  -32.3284   64.1341   65.8199 C   0  0  0  0  0  0  0  0  0  0  0  0
  -31.4535   65.3678   65.7184 N   0  0  0  0  0  0  0  0  0  0  0  0
  -31.6783   66.2849   66.8774 C   0  0  0  0  0  0  0  0  0  0  0  0
  -31.7723   66.1047   64.4572 C   0  0  0  0  0  0  0  0  0  0  0  0
  -30.0134   64.9611   65.7022 C   0  0  0  0  0  0  0  0  0  0  0  0
 34 33  1  0  0  0
 34 35  1  0  0  0
 34 36  1  0  0  0
 34 37  1  0  0  0
 22 23  1  0  0  0
 22 25  1  0  0  0
 22 21  1  0  0  0
 27 26  1  0  0  0
 27 28  2  0  0  0
 27 31  1  0  0  0
 27 29  1  0  0  0
 25 26  1  0  0  0
 32 33  1  0  0  0
 32 31  1  0  0  0
 20 21  1  0  0  0
 20  2  1  0  0  0
  1  2  2  0  0  0
  2  3  1  0  0  0
  3  4  1  0  0  0
  4  5  1  0  0  0
  5  6  1  0  0  0
  6  7  1  0  0  0
  7  8  1  0  0  0
  8  9  1  0  0  0
  9 10  1  0  0  0
 10 11  2  0  0  0
 11 12  1  0  0  0
 12 13  1  0  0  0
 13 14  1  0  0  0
 14 15  1  0  0  0
 15 16  1  0  0  0
 16 17  1  0  0  0
 17 18  1  0  0  0
 18 19  1  0  0  0
 23 24  1  0  0  0
 29 30  1  0  0  0
M  CHG 1  28  -1
M  END
> <minimizedAffinity>
-7.79366

> <CNNscore>
0.6013019681

> <CNNaffinity>
6.1885480881

> <CNN_VS>
3.7211861610

> <CNNaffinity_variance>
0.4075245857

$$$$



 37 36  0  0  0  0  0  0  0  0999 V2000
  -42.1696   62.2933   63.3926 O   0  0  0  0  0  0  0  0  0  0  0  0
  -41.5881   61.2652   63.5595 C   0  0  0  0  0  0  0  0  0  0  0  0
  -42.2462   59.9629   63.8790 C   0  0  0  0  0  0  0  0  0  0  0  0
  -43.2935   60.0821   64.9700 C   0  0  0  0  0  0  0  0  0  0  0  0
  -44.4919   59.1878   64.7366 C   0  0  0  0  0  0  0  0  0  0  0  0
  -45.0695   58.5749   65.9907 C   0  0  0  0  0  0  0  0  0  0  0  0
  -46.5725   58.6556   66.0730 C   0  0  0  0  0  0  0  0  0  0  0  0
  -47.0974   60.0088   65.6748 C   0  0  0  0  0  0  0  0  0  0  0  0
  -48.4949   60.0226   65.1299 C   0  0  0  0  0  0  0  0  0  0  0  0
  -49.1705   58.7205   65.2253 C   0  0  0  0  0  0  0  0  0  0  0  0
  -49.8872   58.1120   64.3062 C   0  0  0  0  0  0  0  0  0  0  0  0
  -50.1819   58.5708   62.9253 C   0  0  0  0  0  0  0  0  0  0  0  0
  -49.5586   57.7477   61.8165 C   0  0  0  0  0  0  0  0  0  0  0  0
  -50.5241   57.4457   60.7036 C   0  0  0  0  0  0  0  0  0  0  0  0
  -49.8786   57.1297   59.3787 C   0  0  0  0  0  0  0  0  0  0  0  0
  -48.8626   56.0132   59.4784 C   0  0  0  0  0  0  0  0  0  0  0  0
  -47.4835   56.3670   58.9962 C   0  0  0  0  0  0  0  0  0  0  0  0
  -46.9476   55.4066   58.0115 C   0  0  0  0  0  0  0  0  0  0  0  0
  -47.7523   55.3131   56.7949 C   0  0  0  0  0  0  0  0  0  0  0  0
  -40.2625   61.1432   63.4905 O   0  0  0  0  0  0  0  0  0  0  0  0
  -39.7319   60.0798   62.6685 C   0  0  0  0  0  0  0  0  0  0  0  0
  -38.2257   60.1994   62.7067 C   0  0  0  0  0  0  0  0  0  0  0  0
  -37.7440   60.5614   61.4125 O   0  0  0  0  0  0  0  0  0  0  0  0
  -38.0858   61.4372   61.1736 H   0  0  0  0  0  0  0  0  0  0  0  0
  -37.6889   61.1923   63.7090 C   0  0  0  0  0  0  0  0  0  0  0  0
  -36.2510   61.0886   63.7328 O   0  0  0  0  0  0  0  0  0  0  0  0
  -35.5638   59.8495   64.4551 P   0  0  0  0  0  0  0  0  0  0  0  0
  -36.5921   59.2213   65.3090 O   0  0  0  0  0  0  0  0  0  0  0  0
  -34.9154   59.0456   63.4004 O   0  0  0  0  0  0  0  0  0  0  0  0
  -35.5919   58.6906   62.8026 H   0  0  0  0  0  0  0  0  0  0  0  0
  -34.4134   60.4014   65.3979 O   0  0  0  0  0  0  0  0  0  0  0  0
  -34.7244   61.3956   66.4023 C   0  0  0  0  0  0  0  0  0  0  0  0
  -33.6603   62.4617   66.2729 C   0  0  0  0  0  0  0  0  0  0  0  0
  -34.1484   63.8967   66.2631 N   0  0  0  0  0  0  0  0  0  0  0  0
  -34.9014   64.2014   65.0080 C   0  0  0  0  0  0  0  0  0  0  0  0
  -32.9789   64.8235   66.3555 C   0  0  0  0  0  0  0  0  0  0  0  0
  -35.0540   64.1262   67.4321 C   0  0  0  0  0  0  0  0  0  0  0  0
 34 33  1  0  0  0
 34 35  1  0  0  0
 34 36  1  0  0  0
 34 37  1  0  0  0
 22 23  1  0  0  0
 22 25  1  0  0  0
 22 21  1  0  0  0
 27 26  1  0  0  0
 27 28  2  0  0  0
 27 31  1  0  0  0
 27 29  1  0  0  0
 25 26  1  0  0  0
 32 33  1  0  0  0
 32 31  1  0  0  0
 20 21  1  0  0  0
 20  2  1  0  0  0
  1  2  2  0  0  0
  2  3  1  0  0  0
  3  4  1  0  0  0
  4  5  1  0  0  0
  5  6  1  0  0  0
  6  7  1  0  0  0
  7  8  1  0  0  0
  8  9  1  0  0  0
  9 10  1  0  0  0
 10 11  2  0  0  0
 11 12  1  0  0  0
 12 13  1  0  0  0
 13 14  1  0  0  0
 14 15  1  0  0  0
 15 16  1  0  0  0
 16 17  1  0  0  0
 17 18  1  0  0  0
 18 19  1  0  0  0
 23 24  1  0  0  0
 29 30  1  0  0  0
M  CHG 1  28  -1
M  END
> <minimizedAffinity>
-7.21488

> <CNNscore>
0.5789536238

> <CNNaffinity>
6.4188346863

> <CNN_VS>
3.7162075043

> <CNNaffinity_variance>
0.9133771062

$$$$



 37 36  0  0  0  0  0  0  0  0999 V2000
  -39.9158   62.1520   65.7833 O   0  0  0  0  0  0  0  0  0  0  0  0
  -39.5636   61.0141   65.8465 C   0  0  0  0  0  0  0  0  0  0  0  0
  -40.4399   59.8396   65.5572 C   0  0  0  0  0  0  0  0  0  0  0  0
  -41.4800   59.5987   66.6351 C   0  0  0  0  0  0  0  0  0  0  0  0
  -42.8984   59.6770   66.1132 C   0  0  0  0  0  0  0  0  0  0  0  0
  -43.0708   59.1912   64.6933 C   0  0  0  0  0  0  0  0  0  0  0  0
  -44.3980   58.5256   64.4328 C   0  0  0  0  0  0  0  0  0  0  0  0
  -44.5785   57.2690   65.2413 C   0  0  0  0  0  0  0  0  0  0  0  0
  -45.8970   57.1396   65.9448 C   0  0  0  0  0  0  0  0  0  0  0  0
  -46.2993   58.3605   66.6581 C   0  0  0  0  0  0  0  0  0  0  0  0
  -47.2893   59.1763   66.3701 C   0  0  0  0  0  0  0  0  0  0  0  0
  -48.2727   59.0647   65.2633 C   0  0  0  0  0  0  0  0  0  0  0  0
  -49.5247   59.9041   65.4149 C   0  0  0  0  0  0  0  0  0  0  0  0
  -50.6254   59.4800   64.4817 C   0  0  0  0  0  0  0  0  0  0  0  0
  -50.3654   59.7746   63.0266 C   0  0  0  0  0  0  0  0  0  0  0  0
  -50.8087   58.6499   62.1172 C   0  0  0  0  0  0  0  0  0  0  0  0
  -49.6909   57.8585   61.4975 C   0  0  0  0  0  0  0  0  0  0  0  0
  -49.7265   57.8596   60.0217 C   0  0  0  0  0  0  0  0  0  0  0  0
  -48.7489   56.9567   59.4171 C   0  0  0  0  0  0  0  0  0  0  0  0
  -38.3334   60.6367   66.1945 O   0  0  0  0  0  0  0  0  0  0  0  0
  -37.3062   60.6910   65.1797 C   0  0  0  0  0  0  0  0  0  0  0  0
  -36.9309   62.1447   65.0060 C   0  0  0  0  0  0  0  0  0  0  0  0
  -36.7263   62.7399   66.2874 O   0  0  0  0  0  0  0  0  0  0  0  0
  -35.9761   62.3104   66.7273 H   0  0  0  0  0  0  0  0  0  0  0  0
  -35.7017   62.3911   64.1654 C   0  0  0  0  0  0  0  0  0  0  0  0
  -35.9141   63.5812   63.3797 O   0  0  0  0  0  0  0  0  0  0  0  0
  -35.0080   64.8634   63.6337 P   0  0  0  0  0  0  0  0  0  0  0  0
  -35.4339   65.8932   62.6646 O   0  0  0  0  0  0  0  0  0  0  0  0
  -35.0824   65.1600   65.0778 O   0  0  0  0  0  0  0  0  0  0  0  0
  -35.9925   65.4005   65.3120 H   0  0  0  0  0  0  0  0  0  0  0  0
  -33.5032   64.4783   63.3108 O   0  0  0  0  0  0  0  0  0  0  0  0
  -32.4324   65.0445   64.1024 C   0  0  0  0  0  0  0  0  0  0  0  0
  -31.1746   64.3240   63.6728 C   0  0  0  0  0  0  0  0  0  0  0  0
  -29.8649   65.0221   63.9814 N   0  0  0  0  0  0  0  0  0  0  0  0
  -30.0974   66.4253   64.4415 C   0  0  0  0  0  0  0  0  0  0  0  0
  -29.0149   65.0571   62.7519 C   0  0  0  0  0  0  0  0  0  0  0  0
  -29.1424   64.2782   65.0603 C   0  0  0  0  0  0  0  0  0  0  0  0
 34 33  1  0  0  0
 34 35  1  0  0  0
 34 36  1  0  0  0
 34 37  1  0  0  0
 22 23  1  0  0  0
 22 25  1  0  0  0
 22 21  1  0  0  0
 27 26  1  0  0  0
 27 28  2  0  0  0
 27 31  1  0  0  0
 27 29  1  0  0  0
 25 26  1  0  0  0
 32 33  1  0  0  0
 32 31  1  0  0  0
 20 21  1  0  0  0
 20  2  1  0  0  0
  1  2  2  0  0  0
  2  3  1  0  0  0
  3  4  1  0  0  0
  4  5  1  0  0  0
  5  6  1  0  0  0
  6  7  1  0  0  0
  7  8  1  0  0  0
  8  9  1  0  0  0
  9 10  1  0  0  0
 10 11  2  0  0  0
 11 12  1  0  0  0
 12 13  1  0  0  0
 13 14  1  0  0  0
 14 15  1  0  0  0
 15 16  1  0  0  0
 16 17  1  0  0  0
 17 18  1  0  0  0
 18 19  1  0  0  0
 23 24  1  0  0  0
 29 30  1  0  0  0
M  CHG 1  28  -1
M  END
> <minimizedAffinity>
-7.63564

> <CNNscore>
0.5699079633

> <CNNaffinity>
5.9845867157

> <CNN_VS>
3.4106636047

> <CNNaffinity_variance>
0.5114729404

$$$$



 37 36  0  0  0  0  0  0  0  0999 V2000
  -42.2343   60.3207   63.6109 O   0  0  0  0  0  0  0  0  0  0  0  0
  -41.4096   60.0272   64.4213 C   0  0  0  0  0  0  0  0  0  0  0  0
  -41.5730   58.9503   65.4434 C   0  0  0  0  0  0  0  0  0  0  0  0
  -42.4978   59.3482   66.5782 C   0  0  0  0  0  0  0  0  0  0  0  0
  -43.8981   59.6786   66.1087 C   0  0  0  0  0  0  0  0  0  0  0  0
  -44.7358   58.4761   65.7424 C   0  0  0  0  0  0  0  0  0  0  0  0
  -46.0502   58.8234   65.0913 C   0  0  0  0  0  0  0  0  0  0  0  0
  -46.7633   59.9438   65.7996 C   0  0  0  0  0  0  0  0  0  0  0  0
  -47.9893   60.4647   65.1098 C   0  0  0  0  0  0  0  0  0  0  0  0
  -49.2138   59.7337   65.4668 C   0  0  0  0  0  0  0  0  0  0  0  0
  -50.0476   59.1115   64.6630 C   0  0  0  0  0  0  0  0  0  0  0  0
  -49.9577   58.9657   63.1882 C   0  0  0  0  0  0  0  0  0  0  0  0
  -48.9893   57.9105   62.6940 C   0  0  0  0  0  0  0  0  0  0  0  0
  -49.5210   57.1389   61.5175 C   0  0  0  0  0  0  0  0  0  0  0  0
  -49.8246   57.9757   60.3012 C   0  0  0  0  0  0  0  0  0  0  0  0
  -48.7287   57.9082   59.2605 C   0  0  0  0  0  0  0  0  0  0  0  0
  -48.8876   56.8126   58.2436 C   0  0  0  0  0  0  0  0  0  0  0  0
  -47.7272   56.6853   57.3399 C   0  0  0  0  0  0  0  0  0  0  0  0
  -47.6199   55.3683   56.7154 C   0  0  0  0  0  0  0  0  0  0  0  0
  -40.2264   60.6319   64.5279 O   0  0  0  0  0  0  0  0  0  0  0  0
  -39.7127   61.3051   63.3571 C   0  0  0  0  0  0  0  0  0  0  0  0
  -38.2569   60.9204   63.2274 C   0  0  0  0  0  0  0  0  0  0  0  0
  -37.7706   61.3222   61.9466 O   0  0  0  0  0  0  0  0  0  0  0  0
  -37.8096   62.2887   61.8746 H   0  0  0  0  0  0  0  0  0  0  0  0
  -37.3470   61.4980   64.2842 C   0  0  0  0  0  0  0  0  0  0  0  0
  -36.1302   61.9409   63.6500 O   0  0  0  0  0  0  0  0  0  0  0  0
  -34.7906   62.0401   64.5015 P   0  0  0  0  0  0  0  0  0  0  0  0
  -35.1354   62.7036   65.7751 O   0  0  0  0  0  0  0  0  0  0  0  0
  -34.2021   60.6867   64.5317 O   0  0  0  0  0  0  0  0  0  0  0  0
  -34.7987   60.0852   65.0040 H   0  0  0  0  0  0  0  0  0  0  0  0
  -33.7752   62.9757   63.7200 O   0  0  0  0  0  0  0  0  0  0  0  0
  -32.8976   63.8571   64.4594 C   0  0  0  0  0  0  0  0  0  0  0  0
  -31.6956   64.0849   63.5713 C   0  0  0  0  0  0  0  0  0  0  0  0
  -31.3997   65.5250   63.2019 N   0  0  0  0  0  0  0  0  0  0  0  0
  -32.5508   66.1423   62.4747 C   0  0  0  0  0  0  0  0  0  0  0  0
  -30.1938   65.5774   62.3196 C   0  0  0  0  0  0  0  0  0  0  0  0
  -31.1378   66.3175   64.4439 C   0  0  0  0  0  0  0  0  0  0  0  0
 34 33  1  0  0  0
 34 35  1  0  0  0
 34 36  1  0  0  0
 34 37  1  0  0  0
 22 23  1  0  0  0
 22 25  1  0  0  0
 22 21  1  0  0  0
 27 26  1  0  0  0
 27 28  2  0  0  0
 27 31  1  0  0  0
 27 29  1  0  0  0
 25 26  1  0  0  0
 32 33  1  0  0  0
 32 31  1  0  0  0
 20 21  1  0  0  0
 20  2  1  0  0  0
  1  2  2  0  0  0
  2  3  1  0  0  0
  3  4  1  0  0  0
  4  5  1  0  0  0
  5  6  1  0  0  0
  6  7  1  0  0  0
  7  8  1  0  0  0
  8  9  1  0  0  0
  9 10  1  0  0  0
 10 11  2  0  0  0
 11 12  1  0  0  0
 12 13  1  0  0  0
 13 14  1  0  0  0
 14 15  1  0  0  0
 15 16  1  0  0  0
 16 17  1  0  0  0
 17 18  1  0  0  0
 18 19  1  0  0  0
 23 24  1  0  0  0
 29 30  1  0  0  0
M  CHG 1  28  -1
M  END
> <minimizedAffinity>
-7.06022

> <CNNscore>
0.5658980608

> <CNNaffinity>
5.9792695045

> <CNN_VS>
3.3836569786

> <CNNaffinity_variance>
0.6487364173

$$$$
