


 25 25  0  0  0  0  0  0  0  0999 V2000
  -43.6156   57.2731   63.4574 C   0  0  0  0  0  0  0  0  0  0  0  0
  -42.5764   57.3517   62.3292 C   0  0  0  0  0  0  0  0  0  0  0  0
  -41.2211   56.8625   62.8210 C   0  0  0  0  0  0  0  0  0  0  0  0
  -40.2652   56.7374   61.6342 C   0  0  0  0  0  0  0  0  0  0  0  0
  -38.8173   56.8583   62.1089 C   0  0  0  0  0  0  0  0  0  0  0  0
  -36.5329   57.8942   61.2230 C   0  0  0  0  0  0  0  0  0  0  0  0
  -38.0509   57.6769   61.0684 C   0  0  0  0  0  0  0  0  0  0  0  0
  -35.7620   57.4171   62.4634 C   0  0  0  0  0  0  0  0  0  0  0  0
  -34.5212   56.6625   61.9639 C   0  0  0  0  0  0  0  0  0  0  0  0
  -33.1390   57.3479   61.8443 C   0  0  0  0  0  0  0  0  0  0  0  0
  -32.9228   58.8179   62.2543 C   0  0  0  0  0  0  0  0  0  0  0  0
  -31.0890   60.3979   61.4998 C   0  0  0  0  0  0  0  0  0  0  0  0
  -31.4121   59.0870   62.2207 C   0  0  0  0  0  0  0  0  0  0  0  0
  -44.9462   57.9936   63.1178 C   0  0  0  0  0  0  0  0  0  0  0  0
  -44.7510   59.2438   62.2276 C   0  0  0  0  0  0  0  0  0  0  0  0
  -46.2617   58.0465   59.0590 C   0  0  0  0  0  0  0  0  0  0  0  0
  -47.0038   59.1610   58.6463 C   0  0  0  0  0  0  0  0  0  0  0  0
  -45.5187   58.0909   60.2448 C   0  0  0  0  0  0  0  0  0  0  0  0
  -46.9893   60.3078   59.4399 C   0  0  0  0  0  0  0  0  0  0  0  0
  -46.2537   60.3426   60.6234 C   0  0  0  0  0  0  0  0  0  0  0  0
  -45.5282   59.2273   61.0615 C   0  0  0  0  0  0  0  0  0  0  0  0
  -47.6778   61.4279   59.1097 O   0  0  0  0  0  0  0  0  0  0  0  0
  -46.2755   61.4834   61.3716 O   0  0  0  0  0  0  0  0  0  0  0  0
  -48.1863   61.4504   58.3230 H   0  0  0  0  0  0  0  0  0  0  0  0
  -46.7616   62.2281   61.0763 H   0  0  0  0  0  0  0  0  0  0  0  0
 12 13  1  0  0  0
  9 10  2  0  0  0
  9  8  1  0  0  0
  6  7  2  0  0  0
  6  8  1  0  0  0
 10 11  1  0  0  0
  7  5  1  0  0  0
 16 17  2  0  0  0
 16 18  1  0  0  0
 17 19  1  0  0  0
 18 21  2  0  0  0
 13 11  1  0  0  0
  5  4  1  0  0  0
  4  3  1  0  0  0
  3  2  1  0  0  0
  2  1  1  0  0  0
  1 14  1  0  0  0
 14 15  1  0  0  0
 15 21  1  0  0  0
 19 20  2  0  0  0
 19 22  1  0  0  0
 20 21  1  0  0  0
 20 23  1  0  0  0
 22 24  1  0  0  0
 23 25  1  0  0  0
M  END
> <minimizedAffinity>
-7.68880

> <minimizedRMSD>
1.17039

> <CNNscore>
0.1821415722

> <CNNaffinity>
5.7308125496

> <CNN_VS>
1.0438191891

> <CNNaffinity_variance>
0.2917405069

$$$$
