


 21 20  0  0  0  0  0  0  0  0999 V2000
  -46.1177   57.0564   65.8985 C   0  0  0  0  0  0  0  0  0  0  0  0
  -47.6079   57.0669   65.6638 C   0  0  0  0  0  0  0  0  0  0  0  0
  -48.2079   58.1030   64.8121 C   0  0  0  0  0  0  0  0  0  0  0  0
  -49.6756   58.4432   64.9446 C   0  0  0  0  0  0  0  0  0  0  0  0
  -50.2630   58.7922   63.5776 C   0  0  0  0  0  0  0  0  0  0  0  0
  -49.3749   58.3610   62.4136 C   0  0  0  0  0  0  0  0  0  0  0  0
  -50.1725   57.6096   61.3443 C   0  0  0  0  0  0  0  0  0  0  0  0
  -49.5723   57.6643   59.9342 C   0  0  0  0  0  0  0  0  0  0  0  0
  -48.0396   57.7330   59.9596 C   0  0  0  0  0  0  0  0  0  0  0  0
  -47.3984   57.0576   58.7445 C   0  0  0  0  0  0  0  0  0  0  0  0
  -47.0307   58.0395   57.6255 C   0  0  0  0  0  0  0  0  0  0  0  0
  -45.4749   57.8843   64.7974 C   0  0  0  0  0  0  0  0  0  0  0  0
  -43.9617   57.7603   64.8084 C   0  0  0  0  0  0  0  0  0  0  0  0
  -43.2980   59.1322   64.8806 C   0  0  0  0  0  0  0  0  0  0  0  0
  -43.6184   59.8008   66.2101 C   0  0  0  0  0  0  0  0  0  0  0  0
  -42.3482   60.0862   66.9958 C   0  0  0  0  0  0  0  0  0  0  0  0
  -41.1074   59.8338   66.1455 C   0  0  0  0  0  0  0  0  0  0  0  0
  -40.2930   61.1085   66.0400 C   0  0  0  0  0  0  0  0  0  0  0  0
  -40.8715   62.2199   65.9321 O   0  0  0  0  0  0  0  0  0  0  0  0
  -39.0356   61.0636   66.0550 O   0  0  0  0  0  0  0  0  0  0  0  0
  -38.5971   60.2395   66.1352 H   0  0  0  0  0  0  0  0  0  0  0  0
 18 19  2  0  0  0
 18 17  1  0  0  0
 18 20  1  0  0  0
 17 16  1  0  0  0
 16 15  1  0  0  0
 15 14  1  0  0  0
 14 13  1  0  0  0
 13 12  1  0  0  0
 12  1  1  0  0  0
  1  2  1  0  0  0
  2  3  1  0  0  0
  3  4  1  0  0  0
  4  5  1  0  0  0
  5  6  1  0  0  0
  6  7  1  0  0  0
  7  8  1  0  0  0
  8  9  1  0  0  0
  9 10  1  0  0  0
 10 11  1  0  0  0
 20 21  1  0  0  0
M  END
> <minimizedAffinity>
-7.17290

> <CNNscore>
0.9532432556

> <CNNaffinity>
7.1387596130

> <CNN_VS>
6.8049745560

> <CNNaffinity_variance>
0.6934217811

$$$$



 21 20  0  0  0  0  0  0  0  0999 V2000
  -47.4460   57.7447   65.4160 C   0  0  0  0  0  0  0  0  0  0  0  0
  -48.2459   58.7961   64.6876 C   0  0  0  0  0  0  0  0  0  0  0  0
  -49.3004   58.3931   63.7471 C   0  0  0  0  0  0  0  0  0  0  0  0
  -49.2047   58.7725   62.2861 C   0  0  0  0  0  0  0  0  0  0  0  0
  -50.1561   57.9140   61.4535 C   0  0  0  0  0  0  0  0  0  0  0  0
  -49.4547   57.1567   60.3291 C   0  0  0  0  0  0  0  0  0  0  0  0
  -48.3125   57.9772   59.7239 C   0  0  0  0  0  0  0  0  0  0  0  0
  -47.3183   57.1730   58.8775 C   0  0  0  0  0  0  0  0  0  0  0  0
  -47.0847   57.8076   57.5001 C   0  0  0  0  0  0  0  0  0  0  0  0
  -47.6349   56.9528   56.3554 C   0  0  0  0  0  0  0  0  0  0  0  0
  -47.5779   55.4466   56.6383 C   0  0  0  0  0  0  0  0  0  0  0  0
  -46.0082   58.2327   65.4901 C   0  0  0  0  0  0  0  0  0  0  0  0
  -45.9010   59.7191   65.1994 C   0  0  0  0  0  0  0  0  0  0  0  0
  -44.4460   60.1783   65.2113 C   0  0  0  0  0  0  0  0  0  0  0  0
  -43.6894   59.4947   66.3417 C   0  0  0  0  0  0  0  0  0  0  0  0
  -42.6258   60.4152   66.9193 C   0  0  0  0  0  0  0  0  0  0  0  0
  -41.2259   59.9458   66.5371 C   0  0  0  0  0  0  0  0  0  0  0  0
  -40.3766   61.1392   66.1451 C   0  0  0  0  0  0  0  0  0  0  0  0
  -40.9141   62.2592   65.9492 O   0  0  0  0  0  0  0  0  0  0  0  0
  -39.1317   61.0173   66.0088 O   0  0  0  0  0  0  0  0  0  0  0  0
  -38.7238   60.1862   66.1529 H   0  0  0  0  0  0  0  0  0  0  0  0
 18 19  2  0  0  0
 18 17  1  0  0  0
 18 20  1  0  0  0
 17 16  1  0  0  0
 16 15  1  0  0  0
 15 14  1  0  0  0
 14 13  1  0  0  0
 13 12  1  0  0  0
 12  1  1  0  0  0
  1  2  1  0  0  0
  2  3  1  0  0  0
  3  4  1  0  0  0
  4  5  1  0  0  0
  5  6  1  0  0  0
  6  7  1  0  0  0
  7  8  1  0  0  0
  8  9  1  0  0  0
  9 10  1  0  0  0
 10 11  1  0  0  0
 20 21  1  0  0  0
M  END
> <minimizedAffinity>
-7.26738

> <CNNscore>
0.9518857598

> <CNNaffinity>
6.9791440964

> <CNN_VS>
6.6433477402

> <CNNaffinity_variance>
0.7087439299

$$$$



 21 20  0  0  0  0  0  0  0  0999 V2000
  -47.8691   59.8532   66.0697 C   0  0  0  0  0  0  0  0  0  0  0  0
  -48.4854   58.5561   65.6075 C   0  0  0  0  0  0  0  0  0  0  0  0
  -49.6582   58.5770   64.7225 C   0  0  0  0  0  0  0  0  0  0  0  0
  -49.4879   58.7979   63.2361 C   0  0  0  0  0  0  0  0  0  0  0  0
  -50.6841   58.2263   62.4760 C   0  0  0  0  0  0  0  0  0  0  0  0
  -50.3178   57.6868   61.0960 C   0  0  0  0  0  0  0  0  0  0  0  0
  -49.4908   58.6977   60.2970 C   0  0  0  0  0  0  0  0  0  0  0  0
  -48.1321   58.1792   59.8108 C   0  0  0  0  0  0  0  0  0  0  0  0
  -48.2753   57.1498   58.6819 C   0  0  0  0  0  0  0  0  0  0  0  0
  -47.4337   57.5013   57.4524 C   0  0  0  0  0  0  0  0  0  0  0  0
  -47.9273   56.8309   56.1645 C   0  0  0  0  0  0  0  0  0  0  0  0
  -46.3730   59.6243   66.2119 C   0  0  0  0  0  0  0  0  0  0  0  0
  -45.5819   60.4035   65.1764 C   0  0  0  0  0  0  0  0  0  0  0  0
  -44.0922   60.0874   65.2702 C   0  0  0  0  0  0  0  0  0  0  0  0
  -43.7404   59.6306   66.6791 C   0  0  0  0  0  0  0  0  0  0  0  0
  -42.4764   60.3159   67.1738 C   0  0  0  0  0  0  0  0  0  0  0  0
  -41.2639   59.8935   66.3504 C   0  0  0  0  0  0  0  0  0  0  0  0
  -40.3971   61.1034   66.0606 C   0  0  0  0  0  0  0  0  0  0  0  0
  -39.1448   61.0152   66.1365 O   0  0  0  0  0  0  0  0  0  0  0  0
  -40.9227   62.2028   65.7473 O   0  0  0  0  0  0  0  0  0  0  0  0
  -41.8550   62.2765   65.6887 H   0  0  0  0  0  0  0  0  0  0  0  0
 18 19  2  0  0  0
 18 17  1  0  0  0
 18 20  1  0  0  0
 17 16  1  0  0  0
 16 15  1  0  0  0
 15 14  1  0  0  0
 14 13  1  0  0  0
 13 12  1  0  0  0
 12  1  1  0  0  0
  1  2  1  0  0  0
  2  3  1  0  0  0
  3  4  1  0  0  0
  4  5  1  0  0  0
  5  6  1  0  0  0
  6  7  1  0  0  0
  7  8  1  0  0  0
  8  9  1  0  0  0
  9 10  1  0  0  0
 10 11  1  0  0  0
 20 21  1  0  0  0
M  END
> <minimizedAffinity>
-7.29279

> <CNNscore>
0.9439730048

> <CNNaffinity>
6.9307374954

> <CNN_VS>
6.5424289703

> <CNNaffinity_variance>
0.6735629439

$$$$



 21 20  0  0  0  0  0  0  0  0999 V2000
  -48.3047   57.8074   64.9467 C   0  0  0  0  0  0  0  0  0  0  0  0
  -49.0316   58.9092   65.6771 C   0  0  0  0  0  0  0  0  0  0  0  0
  -50.2628   59.4758   65.1096 C   0  0  0  0  0  0  0  0  0  0  0  0
  -50.5534   59.3409   63.6315 C   0  0  0  0  0  0  0  0  0  0  0  0
  -49.8340   60.4387   62.8488 C   0  0  0  0  0  0  0  0  0  0  0  0
  -49.5374   60.0505   61.4027 C   0  0  0  0  0  0  0  0  0  0  0  0
  -49.0305   58.6096   61.2987 C   0  0  0  0  0  0  0  0  0  0  0  0
  -49.8262   57.7131   60.3423 C   0  0  0  0  0  0  0  0  0  0  0  0
  -49.1202   57.5372   58.9913 C   0  0  0  0  0  0  0  0  0  0  0  0
  -47.6682   58.0219   59.0167 C   0  0  0  0  0  0  0  0  0  0  0  0
  -46.9686   57.9210   57.6558 C   0  0  0  0  0  0  0  0  0  0  0  0
  -46.8878   58.2904   64.6822 C   0  0  0  0  0  0  0  0  0  0  0  0
  -46.6259   59.6453   65.3155 C   0  0  0  0  0  0  0  0  0  0  0  0
  -45.5021   59.5635   66.3443 C   0  0  0  0  0  0  0  0  0  0  0  0
  -44.1742   59.9394   65.7016 C   0  0  0  0  0  0  0  0  0  0  0  0
  -43.0054   59.4185   66.5231 C   0  0  0  0  0  0  0  0  0  0  0  0
  -42.1739   60.5667   67.0857 C   0  0  0  0  0  0  0  0  0  0  0  0
  -41.0451   60.8965   66.1284 C   0  0  0  0  0  0  0  0  0  0  0  0
  -40.5141   62.0363   66.1477 O   0  0  0  0  0  0  0  0  0  0  0  0
  -40.6356   60.0362   65.3066 O   0  0  0  0  0  0  0  0  0  0  0  0
  -41.0261   59.1847   65.2860 H   0  0  0  0  0  0  0  0  0  0  0  0
 18 19  2  0  0  0
 18 17  1  0  0  0
 18 20  1  0  0  0
 17 16  1  0  0  0
 16 15  1  0  0  0
 15 14  1  0  0  0
 14 13  1  0  0  0
 13 12  1  0  0  0
 12  1  1  0  0  0
  1  2  1  0  0  0
  2  3  1  0  0  0
  3  4  1  0  0  0
  4  5  1  0  0  0
  5  6  1  0  0  0
  6  7  1  0  0  0
  7  8  1  0  0  0
  8  9  1  0  0  0
  9 10  1  0  0  0
 10 11  1  0  0  0
 20 21  1  0  0  0
M  END
> <minimizedAffinity>
-6.97641

> <CNNscore>
0.8506741524

> <CNNaffinity>
6.6927437782

> <CNN_VS>
5.6933441162

> <CNNaffinity_variance>
0.5043901801

$$$$



 21 20  0  0  0  0  0  0  0  0999 V2000
  -48.5208   58.9979   65.5166 C   0  0  0  0  0  0  0  0  0  0  0  0
  -50.0051   58.8864   65.2710 C   0  0  0  0  0  0  0  0  0  0  0  0
  -50.7441   60.0304   64.7196 C   0  0  0  0  0  0  0  0  0  0  0  0
  -51.3938   59.9333   63.3572 C   0  0  0  0  0  0  0  0  0  0  0  0
  -50.4163   59.3341   62.3468 C   0  0  0  0  0  0  0  0  0  0  0  0
  -50.8719   57.9853   61.7963 C   0  0  0  0  0  0  0  0  0  0  0  0
  -50.2515   57.6969   60.4267 C   0  0  0  0  0  0  0  0  0  0  0  0
  -48.9825   58.4981   60.1115 C   0  0  0  0  0  0  0  0  0  0  0  0
  -47.8143   57.5933   59.6980 C   0  0  0  0  0  0  0  0  0  0  0  0
  -47.3138   57.8860   58.2812 C   0  0  0  0  0  0  0  0  0  0  0  0
  -48.0627   57.1022   57.1965 C   0  0  0  0  0  0  0  0  0  0  0  0
  -48.1693   60.4768   65.5343 C   0  0  0  0  0  0  0  0  0  0  0  0
  -46.7673   60.7300   65.0096 C   0  0  0  0  0  0  0  0  0  0  0  0
  -45.8471   59.5499   65.3071 C   0  0  0  0  0  0  0  0  0  0  0  0
  -44.4310   60.0423   65.5711 C   0  0  0  0  0  0  0  0  0  0  0  0
  -43.4788   59.5687   64.4843 C   0  0  0  0  0  0  0  0  0  0  0  0
  -42.7000   60.7369   63.8883 C   0  0  0  0  0  0  0  0  0  0  0  0
  -41.3279   60.8155   64.5290 C   0  0  0  0  0  0  0  0  0  0  0  0
  -40.6877   61.8979   64.5185 O   0  0  0  0  0  0  0  0  0  0  0  0
  -40.8189   59.8001   65.0703 O   0  0  0  0  0  0  0  0  0  0  0  0
  -41.2896   58.9900   65.0822 H   0  0  0  0  0  0  0  0  0  0  0  0
 18 19  2  0  0  0
 18 17  1  0  0  0
 18 20  1  0  0  0
 17 16  1  0  0  0
 16 15  1  0  0  0
 15 14  1  0  0  0
 14 13  1  0  0  0
 13 12  1  0  0  0
 12  1  1  0  0  0
  1  2  1  0  0  0
  2  3  1  0  0  0
  3  4  1  0  0  0
  4  5  1  0  0  0
  5  6  1  0  0  0
  6  7  1  0  0  0
  7  8  1  0  0  0
  8  9  1  0  0  0
  9 10  1  0  0  0
 10 11  1  0  0  0
 20 21  1  0  0  0
M  END
> <minimizedAffinity>
-7.18283

> <CNNscore>
0.8415505290

> <CNNaffinity>
6.7412252426

> <CNN_VS>
5.6730818748

> <CNNaffinity_variance>
0.4409414232

$$$$



 21 20  0  0  0  0  0  0  0  0999 V2000
  -46.4452   60.5056   65.1480 C   0  0  0  0  0  0  0  0  0  0  0  0
  -47.9276   60.5750   64.8768 C   0  0  0  0  0  0  0  0  0  0  0  0
  -48.8750   59.9806   65.8298 C   0  0  0  0  0  0  0  0  0  0  0  0
  -50.1420   59.3201   65.3338 C   0  0  0  0  0  0  0  0  0  0  0  0
  -51.0448   60.3501   64.6559 C   0  0  0  0  0  0  0  0  0  0  0  0
  -51.4485   59.9551   63.2379 C   0  0  0  0  0  0  0  0  0  0  0  0
  -50.5691   58.8251   62.6956 C   0  0  0  0  0  0  0  0  0  0  0  0
  -49.9437   59.0966   61.3221 C   0  0  0  0  0  0  0  0  0  0  0  0
  -48.7077   58.2242   61.0660 C   0  0  0  0  0  0  0  0  0  0  0  0
  -48.7101   57.5920   59.6717 C   0  0  0  0  0  0  0  0  0  0  0  0
  -47.5889   58.1134   58.7646 C   0  0  0  0  0  0  0  0  0  0  0  0
  -46.1497   59.1324   65.7292 C   0  0  0  0  0  0  0  0  0  0  0  0
  -45.1826   58.3480   64.8604 C   0  0  0  0  0  0  0  0  0  0  0  0
  -43.7585   58.8748   65.0087 C   0  0  0  0  0  0  0  0  0  0  0  0
  -43.0074   58.0683   66.0589 C   0  0  0  0  0  0  0  0  0  0  0  0
  -42.1403   58.9717   66.9215 C   0  0  0  0  0  0  0  0  0  0  0  0
  -42.2821   60.4319   66.5039 C   0  0  0  0  0  0  0  0  0  0  0  0
  -40.9208   60.9945   66.1443 C   0  0  0  0  0  0  0  0  0  0  0  0
  -40.7935   62.2172   65.8786 O   0  0  0  0  0  0  0  0  0  0  0  0
  -39.9119   60.2437   66.1044 O   0  0  0  0  0  0  0  0  0  0  0  0
  -39.9986   59.3317   66.3010 H   0  0  0  0  0  0  0  0  0  0  0  0
 18 19  2  0  0  0
 18 17  1  0  0  0
 18 20  1  0  0  0
 17 16  1  0  0  0
 16 15  1  0  0  0
 15 14  1  0  0  0
 14 13  1  0  0  0
 13 12  1  0  0  0
 12  1  1  0  0  0
  1  2  1  0  0  0
  2  3  1  0  0  0
  3  4  1  0  0  0
  4  5  1  0  0  0
  5  6  1  0  0  0
  6  7  1  0  0  0
  7  8  1  0  0  0
  8  9  1  0  0  0
  9 10  1  0  0  0
 10 11  1  0  0  0
 20 21  1  0  0  0
M  END
> <minimizedAffinity>
-7.00844

> <CNNscore>
0.8341978788

> <CNNaffinity>
6.6115341187

> <CNN_VS>
5.5153279305

> <CNNaffinity_variance>
0.4937155843

$$$$



 21 20  0  0  0  0  0  0  0  0999 V2000
  -51.2407   59.5447   62.9252 C   0  0  0  0  0  0  0  0  0  0  0  0
  -50.6061   59.8662   64.2556 C   0  0  0  0  0  0  0  0  0  0  0  0
  -50.0862   58.7820   65.1001 C   0  0  0  0  0  0  0  0  0  0  0  0
  -48.6915   58.8682   65.6787 C   0  0  0  0  0  0  0  0  0  0  0  0
  -47.6872   58.2011   64.7396 C   0  0  0  0  0  0  0  0  0  0  0  0
  -46.2348   58.4476   65.1390 C   0  0  0  0  0  0  0  0  0  0  0  0
  -45.4829   57.1340   65.3694 C   0  0  0  0  0  0  0  0  0  0  0  0
  -43.9578   57.2327   65.2436 C   0  0  0  0  0  0  0  0  0  0  0  0
  -43.4389   58.6371   65.5797 C   0  0  0  0  0  0  0  0  0  0  0  0
  -42.4075   58.6301   66.7109 C   0  0  0  0  0  0  0  0  0  0  0  0
  -42.0209   60.0342   67.1914 C   0  0  0  0  0  0  0  0  0  0  0  0
  -50.2408   58.7234   62.1274 C   0  0  0  0  0  0  0  0  0  0  0  0
  -50.9259   57.6585   61.2896 C   0  0  0  0  0  0  0  0  0  0  0  0
  -49.9109   56.8623   60.4749 C   0  0  0  0  0  0  0  0  0  0  0  0
  -49.4600   57.6693   59.2654 C   0  0  0  0  0  0  0  0  0  0  0  0
  -47.9433   57.6877   59.1582 C   0  0  0  0  0  0  0  0  0  0  0  0
  -47.4943   57.6215   57.7020 C   0  0  0  0  0  0  0  0  0  0  0  0
  -48.0254   56.3541   57.0611 C   0  0  0  0  0  0  0  0  0  0  0  0
  -47.7643   55.2332   57.5683 O   0  0  0  0  0  0  0  0  0  0  0  0
  -48.7256   56.4137   56.0174 O   0  0  0  0  0  0  0  0  0  0  0  0
  -48.9245   57.2450   55.6335 H   0  0  0  0  0  0  0  0  0  0  0  0
 18 19  2  0  0  0
 18 17  1  0  0  0
 18 20  1  0  0  0
 17 16  1  0  0  0
 16 15  1  0  0  0
 15 14  1  0  0  0
 14 13  1  0  0  0
 13 12  1  0  0  0
 12  1  1  0  0  0
  1  2  1  0  0  0
  2  3  1  0  0  0
  3  4  1  0  0  0
  4  5  1  0  0  0
  5  6  1  0  0  0
  6  7  1  0  0  0
  7  8  1  0  0  0
  8  9  1  0  0  0
  9 10  1  0  0  0
 10 11  1  0  0  0
 20 21  1  0  0  0
M  END
> <minimizedAffinity>
-7.39020

> <CNNscore>
0.8208493590

> <CNNaffinity>
6.9904470444

> <CNN_VS>
5.7381038666

> <CNNaffinity_variance>
0.6292704344

$$$$



 21 20  0  0  0  0  0  0  0  0999 V2000
  -48.2470   61.0582   64.9016 C   0  0  0  0  0  0  0  0  0  0  0  0
  -48.9169   59.8832   65.5698 C   0  0  0  0  0  0  0  0  0  0  0  0
  -50.3515   59.6429   65.3625 C   0  0  0  0  0  0  0  0  0  0  0  0
  -51.1496   60.5395   64.4423 C   0  0  0  0  0  0  0  0  0  0  0  0
  -51.5309   59.7854   63.1690 C   0  0  0  0  0  0  0  0  0  0  0  0
  -50.3386   59.4978   62.2605 C   0  0  0  0  0  0  0  0  0  0  0  0
  -50.1309   57.9939   62.0623 C   0  0  0  0  0  0  0  0  0  0  0  0
  -50.8102   57.4070   60.8191 C   0  0  0  0  0  0  0  0  0  0  0  0
  -50.1062   57.8268   59.5220 C   0  0  0  0  0  0  0  0  0  0  0  0
  -48.8547   56.9936   59.2335 C   0  0  0  0  0  0  0  0  0  0  0  0
  -47.8749   57.6789   58.2732 C   0  0  0  0  0  0  0  0  0  0  0  0
  -46.7461   60.8242   64.9609 C   0  0  0  0  0  0  0  0  0  0  0  0
  -46.4125   59.3764   65.2736 C   0  0  0  0  0  0  0  0  0  0  0  0
  -45.2888   59.2805   66.3012 C   0  0  0  0  0  0  0  0  0  0  0  0
  -44.0684   60.0515   65.8178 C   0  0  0  0  0  0  0  0  0  0  0  0
  -42.7835   59.3522   66.2324 C   0  0  0  0  0  0  0  0  0  0  0  0
  -41.9018   60.2731   67.0696 C   0  0  0  0  0  0  0  0  0  0  0  0
  -40.7579   60.7943   66.2217 C   0  0  0  0  0  0  0  0  0  0  0  0
  -39.9933   59.9898   65.6304 O   0  0  0  0  0  0  0  0  0  0  0  0
  -40.5628   62.0320   66.1074 O   0  0  0  0  0  0  0  0  0  0  0  0
  -41.1281   62.6378   66.5448 H   0  0  0  0  0  0  0  0  0  0  0  0
 18 19  2  0  0  0
 18 17  1  0  0  0
 18 20  1  0  0  0
 17 16  1  0  0  0
 16 15  1  0  0  0
 15 14  1  0  0  0
 14 13  1  0  0  0
 13 12  1  0  0  0
 12  1  1  0  0  0
  1  2  1  0  0  0
  2  3  1  0  0  0
  3  4  1  0  0  0
  4  5  1  0  0  0
  5  6  1  0  0  0
  6  7  1  0  0  0
  7  8  1  0  0  0
  8  9  1  0  0  0
  9 10  1  0  0  0
 10 11  1  0  0  0
 20 21  1  0  0  0
M  END
> <minimizedAffinity>
-7.14273

> <CNNscore>
0.8020930886

> <CNNaffinity>
6.5146355629

> <CNN_VS>
5.2253441811

> <CNNaffinity_variance>
0.4804151058

$$$$



 21 20  0  0  0  0  0  0  0  0999 V2000
  -47.2878   58.8938   64.6484 C   0  0  0  0  0  0  0  0  0  0  0  0
  -48.3354   57.9798   65.2340 C   0  0  0  0  0  0  0  0  0  0  0  0
  -49.7361   58.4187   65.2998 C   0  0  0  0  0  0  0  0  0  0  0  0
  -50.0685   59.8742   65.5413 C   0  0  0  0  0  0  0  0  0  0  0  0
  -51.1230   60.3487   64.5422 C   0  0  0  0  0  0  0  0  0  0  0  0
  -51.0247   59.6519   63.1877 C   0  0  0  0  0  0  0  0  0  0  0  0
  -49.9972   60.3308   62.2780 C   0  0  0  0  0  0  0  0  0  0  0  0
  -49.2013   59.3769   61.3791 C   0  0  0  0  0  0  0  0  0  0  0  0
  -49.6281   57.9148   61.5650 C   0  0  0  0  0  0  0  0  0  0  0  0
  -50.4190   57.3744   60.3709 C   0  0  0  0  0  0  0  0  0  0  0  0
  -49.6386   57.4219   59.0516 C   0  0  0  0  0  0  0  0  0  0  0  0
  -46.4481   59.4246   65.7991 C   0  0  0  0  0  0  0  0  0  0  0  0
  -45.2390   58.5464   66.0676 C   0  0  0  0  0  0  0  0  0  0  0  0
  -44.3773   58.3996   64.8171 C   0  0  0  0  0  0  0  0  0  0  0  0
  -43.4441   59.5944   64.6796 C   0  0  0  0  0  0  0  0  0  0  0  0
  -42.1454   59.3602   65.4350 C   0  0  0  0  0  0  0  0  0  0  0  0
  -41.8098   60.5469   66.3326 C   0  0  0  0  0  0  0  0  0  0  0  0
  -40.7016   61.3671   65.7014 C   0  0  0  0  0  0  0  0  0  0  0  0
  -39.5285   61.2928   66.1486 O   0  0  0  0  0  0  0  0  0  0  0  0
  -40.9474   62.1295   64.7311 O   0  0  0  0  0  0  0  0  0  0  0  0
  -41.8189   62.1903   64.3922 H   0  0  0  0  0  0  0  0  0  0  0  0
 18 19  2  0  0  0
 18 17  1  0  0  0
 18 20  1  0  0  0
 17 16  1  0  0  0
 16 15  1  0  0  0
 15 14  1  0  0  0
 14 13  1  0  0  0
 13 12  1  0  0  0
 12  1  1  0  0  0
  1  2  1  0  0  0
  2  3  1  0  0  0
  3  4  1  0  0  0
  4  5  1  0  0  0
  5  6  1  0  0  0
  6  7  1  0  0  0
  7  8  1  0  0  0
  8  9  1  0  0  0
  9 10  1  0  0  0
 10 11  1  0  0  0
 20 21  1  0  0  0
M  END
> <minimizedAffinity>
-6.77303

> <CNNscore>
0.7860311866

> <CNNaffinity>
6.5317382812

> <CNN_VS>
5.1341500282

> <CNNaffinity_variance>
0.4961159825

$$$$
