


 37 36  0  0  0  0  0  0  0  0999 V2000
  -41.9809   57.9264   65.6450 O   0  0  0  0  0  0  0  0  0  0  0  0
  -42.8168   58.7499   65.4300 C   0  0  0  0  0  0  0  0  0  0  0  0
  -42.6007   60.0631   65.5049 O   0  0  0  0  0  0  0  0  0  0  0  0
  -41.5695   60.5196   66.4083 C   0  0  0  0  0  0  0  0  0  0  0  0
  -40.6117   61.3626   65.5982 C   0  0  0  0  0  0  0  0  0  0  0  0
  -40.6650   62.7145   66.0539 O   0  0  0  0  0  0  0  0  0  0  0  0
  -40.3621   62.7577   66.9744 H   0  0  0  0  0  0  0  0  0  0  0  0
  -39.1734   60.9058   65.6316 C   0  0  0  0  0  0  0  0  0  0  0  0
  -38.4262   61.6716   64.6651 O   0  0  0  0  0  0  0  0  0  0  0  0
  -36.8671   61.9011   64.8792 P   0  0  0  0  0  0  0  0  0  0  0  0
  -36.3594   62.5800   63.6699 O   0  0  0  0  0  0  0  0  0  0  0  0
  -36.7079   62.5564   66.1924 O   0  0  0  0  0  0  0  0  0  0  0  0
  -37.1266   63.4311   66.1701 H   0  0  0  0  0  0  0  0  0  0  0  0
  -36.1660   60.4812   64.9757 O   0  0  0  0  0  0  0  0  0  0  0  0
  -35.6861   59.8351   63.7732 C   0  0  0  0  0  0  0  0  0  0  0  0
  -36.2455   58.4310   63.8062 C   0  0  0  0  0  0  0  0  0  0  0  0
  -37.4276   58.1600   62.8969 N   0  0  0  0  0  0  0  0  0  0  0  0
  -38.6627   57.8743   63.6893 C   0  0  0  0  0  0  0  0  0  0  0  0
  -37.1317   56.9779   62.0307 C   0  0  0  0  0  0  0  0  0  0  0  0
  -37.6794   59.3552   62.0323 C   0  0  0  0  0  0  0  0  0  0  0  0
  -44.2249   58.4438   65.0369 C   0  0  0  0  0  0  0  0  0  0  0  0
  -44.7231   57.1269   65.6017 C   0  0  0  0  0  0  0  0  0  0  0  0
  -46.1182   57.2239   66.1802 C   0  0  0  0  0  0  0  0  0  0  0  0
  -46.5012   58.6030   66.6632 C   0  0  0  0  0  0  0  0  0  0  0  0
  -47.7090   59.1791   65.9693 C   0  0  0  0  0  0  0  0  0  0  0  0
  -48.4841   58.1381   65.2073 C   0  0  0  0  0  0  0  0  0  0  0  0
  -49.9768   58.2754   65.2661 C   0  0  0  0  0  0  0  0  0  0  0  0
  -50.4393   59.6657   65.1464 C   0  0  0  0  0  0  0  0  0  0  0  0
  -51.0088   60.2422   64.1111 C   0  0  0  0  0  0  0  0  0  0  0  0
  -51.3538   59.6334   62.8016 C   0  0  0  0  0  0  0  0  0  0  0  0
  -50.1908   59.4178   61.8549 C   0  0  0  0  0  0  0  0  0  0  0  0
  -49.8836   57.9622   61.6337 C   0  0  0  0  0  0  0  0  0  0  0  0
  -50.2903   57.4312   60.2829 C   0  0  0  0  0  0  0  0  0  0  0  0
  -49.1642   57.4837   59.2741 C   0  0  0  0  0  0  0  0  0  0  0  0
  -48.3818   56.2081   59.1314 C   0  0  0  0  0  0  0  0  0  0  0  0
  -47.0563   56.4052   58.5123 C   0  0  0  0  0  0  0  0  0  0  0  0
  -47.1255   56.8194   57.1123 C   0  0  0  0  0  0  0  0  0  0  0  0
 17 16  1  0  0  0
 17 18  1  0  0  0
 17 19  1  0  0  0
 17 20  1  0  0  0
  5  6  1  0  0  0
  5  8  1  0  0  0
  5  4  1  0  0  0
 10  9  1  0  0  0
 10 11  2  0  0  0
 10 14  1  0  0  0
 10 12  1  0  0  0
  8  9  1  0  0  0
 15 16  1  0  0  0
 15 14  1  0  0  0
  3  4  1  0  0  0
  3  2  1  0  0  0
  1  2  2  0  0  0
  2 21  1  0  0  0
 21 22  1  0  0  0
 22 23  1  0  0  0
 23 24  1  0  0  0
 24 25  1  0  0  0
 25 26  1  0  0  0
 26 27  1  0  0  0
 27 28  1  0  0  0
 28 29  2  0  0  0
 29 30  1  0  0  0
 30 31  1  0  0  0
 31 32  1  0  0  0
 32 33  1  0  0  0
 33 34  1  0  0  0
 34 35  1  0  0  0
 35 36  1  0  0  0
 36 37  1  0  0  0
  6  7  1  0  0  0
 12 13  1  0  0  0
M  CHG 1  11  -1
M  END
> <minimizedAffinity>
-8.39621

$$$$



 37 36  0  0  0  0  0  0  0  0999 V2000
  -42.8052   57.2871   65.6738 O   0  0  0  0  0  0  0  0  0  0  0  0
  -42.8783   58.4775   65.6483 C   0  0  0  0  0  0  0  0  0  0  0  0
  -41.9809   59.2879   66.2093 O   0  0  0  0  0  0  0  0  0  0  0  0
  -40.7333   59.4896   65.5087 C   0  0  0  0  0  0  0  0  0  0  0  0
  -40.6919   60.9399   65.0853 C   0  0  0  0  0  0  0  0  0  0  0  0
  -40.7237   61.7748   66.2429 O   0  0  0  0  0  0  0  0  0  0  0  0
  -39.9286   61.6187   66.7761 H   0  0  0  0  0  0  0  0  0  0  0  0
  -39.4949   61.3281   64.2517 C   0  0  0  0  0  0  0  0  0  0  0  0
  -39.8918   61.3604   62.8659 O   0  0  0  0  0  0  0  0  0  0  0  0
  -39.0132   60.6025   61.7783 P   0  0  0  0  0  0  0  0  0  0  0  0
  -39.8139   60.5447   60.5387 O   0  0  0  0  0  0  0  0  0  0  0  0
  -37.6960   61.2683   61.7535 O   0  0  0  0  0  0  0  0  0  0  0  0
  -37.8020   62.1835   61.4500 H   0  0  0  0  0  0  0  0  0  0  0  0
  -38.7778   59.1159   62.2801 O   0  0  0  0  0  0  0  0  0  0  0  0
  -37.6798   58.3425   61.7417 C   0  0  0  0  0  0  0  0  0  0  0  0
  -37.2763   57.3796   62.8351 C   0  0  0  0  0  0  0  0  0  0  0  0
  -35.9424   57.6468   63.5036 N   0  0  0  0  0  0  0  0  0  0  0  0
  -35.8570   56.9613   64.8294 C   0  0  0  0  0  0  0  0  0  0  0  0
  -35.7742   59.1174   63.7144 C   0  0  0  0  0  0  0  0  0  0  0  0
  -34.8351   57.1430   62.6321 C   0  0  0  0  0  0  0  0  0  0  0  0
  -43.9732   59.2440   64.9812 C   0  0  0  0  0  0  0  0  0  0  0  0
  -45.2863   59.1784   65.7382 C   0  0  0  0  0  0  0  0  0  0  0  0
  -46.2115   58.0984   65.2205 C   0  0  0  0  0  0  0  0  0  0  0  0
  -47.5221   58.6081   64.6689 C   0  0  0  0  0  0  0  0  0  0  0  0
  -48.6244   57.5799   64.6664 C   0  0  0  0  0  0  0  0  0  0  0  0
  -49.9410   58.1487   65.1228 C   0  0  0  0  0  0  0  0  0  0  0  0
  -50.0768   59.6375   64.9991 C   0  0  0  0  0  0  0  0  0  0  0  0
  -51.0789   60.0508   64.0061 C   0  0  0  0  0  0  0  0  0  0  0  0
  -50.9021   60.2703   62.7219 C   0  0  0  0  0  0  0  0  0  0  0  0
  -49.6497   60.1360   61.9359 C   0  0  0  0  0  0  0  0  0  0  0  0
  -49.7039   59.1541   60.7834 C   0  0  0  0  0  0  0  0  0  0  0  0
  -50.1504   57.7824   61.2089 C   0  0  0  0  0  0  0  0  0  0  0  0
  -49.9213   56.7001   60.1853 C   0  0  0  0  0  0  0  0  0  0  0  0
  -48.8342   57.0564   59.1955 C   0  0  0  0  0  0  0  0  0  0  0  0
  -47.6453   56.1364   59.2020 C   0  0  0  0  0  0  0  0  0  0  0  0
  -47.2940   55.6308   57.8603 C   0  0  0  0  0  0  0  0  0  0  0  0
  -47.2466   56.6765   56.8403 C   0  0  0  0  0  0  0  0  0  0  0  0
 17 16  1  0  0  0
 17 18  1  0  0  0
 17 19  1  0  0  0
 17 20  1  0  0  0
  5  6  1  0  0  0
  5  8  1  0  0  0
  5  4  1  0  0  0
 10  9  1  0  0  0
 10 11  2  0  0  0
 10 14  1  0  0  0
 10 12  1  0  0  0
  8  9  1  0  0  0
 15 16  1  0  0  0
 15 14  1  0  0  0
  3  4  1  0  0  0
  3  2  1  0  0  0
  1  2  2  0  0  0
  2 21  1  0  0  0
 21 22  1  0  0  0
 22 23  1  0  0  0
 23 24  1  0  0  0
 24 25  1  0  0  0
 25 26  1  0  0  0
 26 27  1  0  0  0
 27 28  1  0  0  0
 28 29  2  0  0  0
 29 30  1  0  0  0
 30 31  1  0  0  0
 31 32  1  0  0  0
 32 33  1  0  0  0
 33 34  1  0  0  0
 34 35  1  0  0  0
 35 36  1  0  0  0
 36 37  1  0  0  0
  6  7  1  0  0  0
 12 13  1  0  0  0
M  CHG 1  11  -1
M  END
> <minimizedAffinity>
-8.38040

$$$$



 37 36  0  0  0  0  0  0  0  0999 V2000
  -39.9168   61.7336   65.9349 O   0  0  0  0  0  0  0  0  0  0  0  0
  -39.6779   60.6404   65.5214 C   0  0  0  0  0  0  0  0  0  0  0  0
  -38.4500   60.2070   65.2366 O   0  0  0  0  0  0  0  0  0  0  0  0
  -37.4123   60.4525   66.2118 C   0  0  0  0  0  0  0  0  0  0  0  0
  -36.4413   61.4295   65.5897 C   0  0  0  0  0  0  0  0  0  0  0  0
  -36.9857   62.7477   65.6535 O   0  0  0  0  0  0  0  0  0  0  0  0
  -37.0877   63.0109   66.5815 H   0  0  0  0  0  0  0  0  0  0  0  0
  -35.0679   61.4513   66.2157 C   0  0  0  0  0  0  0  0  0  0  0  0
  -34.4943   62.7592   66.0182 O   0  0  0  0  0  0  0  0  0  0  0  0
  -34.2455   63.7063   67.2713 P   0  0  0  0  0  0  0  0  0  0  0  0
  -35.5606   64.2423   67.6767 O   0  0  0  0  0  0  0  0  0  0  0  0
  -33.4548   62.9280   68.2450 O   0  0  0  0  0  0  0  0  0  0  0  0
  -33.9776   62.1722   68.5555 H   0  0  0  0  0  0  0  0  0  0  0  0
  -33.3434   64.9236   66.8009 O   0  0  0  0  0  0  0  0  0  0  0  0
  -32.6233   64.8408   65.5485 C   0  0  0  0  0  0  0  0  0  0  0  0
  -31.1588   64.7699   65.9170 C   0  0  0  0  0  0  0  0  0  0  0  0
  -30.3653   66.0513   65.7555 N   0  0  0  0  0  0  0  0  0  0  0  0
  -28.9793   65.7696   65.2713 C   0  0  0  0  0  0  0  0  0  0  0  0
  -30.2777   66.7547   67.0719 C   0  0  0  0  0  0  0  0  0  0  0  0
  -31.0468   66.9415   64.7643 C   0  0  0  0  0  0  0  0  0  0  0  0
  -40.7071   59.5880   65.2677 C   0  0  0  0  0  0  0  0  0  0  0  0
  -41.6174   59.3526   66.4582 C   0  0  0  0  0  0  0  0  0  0  0  0
  -43.0052   59.9232   66.2608 C   0  0  0  0  0  0  0  0  0  0  0  0
  -43.6248   59.6126   64.9187 C   0  0  0  0  0  0  0  0  0  0  0  0
  -44.9484   58.8967   65.0086 C   0  0  0  0  0  0  0  0  0  0  0  0
  -45.6471   59.1444   66.3185 C   0  0  0  0  0  0  0  0  0  0  0  0
  -47.1101   59.4603   66.2183 C   0  0  0  0  0  0  0  0  0  0  0  0
  -47.3826   60.7787   65.6278 C   0  0  0  0  0  0  0  0  0  0  0  0
  -48.1851   61.0663   64.6269 C   0  0  0  0  0  0  0  0  0  0  0  0
  -49.0423   60.1379   63.8473 C   0  0  0  0  0  0  0  0  0  0  0  0
  -50.5304   60.2466   64.1101 C   0  0  0  0  0  0  0  0  0  0  0  0
  -51.3616   59.8117   62.9345 C   0  0  0  0  0  0  0  0  0  0  0  0
  -50.5719   59.2619   61.7742 C   0  0  0  0  0  0  0  0  0  0  0  0
  -50.7328   57.7658   61.6181 C   0  0  0  0  0  0  0  0  0  0  0  0
  -50.7721   57.2780   60.1967 C   0  0  0  0  0  0  0  0  0  0  0  0
  -49.4956   57.4702   59.4805 C   0  0  0  0  0  0  0  0  0  0  0  0
  -48.5357   56.3913   59.7060 C   0  0  0  0  0  0  0  0  0  0  0  0
 17 16  1  0  0  0
 17 18  1  0  0  0
 17 19  1  0  0  0
 17 20  1  0  0  0
  5  6  1  0  0  0
  5  8  1  0  0  0
  5  4  1  0  0  0
 10  9  1  0  0  0
 10 11  2  0  0  0
 10 14  1  0  0  0
 10 12  1  0  0  0
  8  9  1  0  0  0
 15 16  1  0  0  0
 15 14  1  0  0  0
  3  4  1  0  0  0
  3  2  1  0  0  0
  1  2  2  0  0  0
  2 21  1  0  0  0
 21 22  1  0  0  0
 22 23  1  0  0  0
 23 24  1  0  0  0
 24 25  1  0  0  0
 25 26  1  0  0  0
 26 27  1  0  0  0
 27 28  1  0  0  0
 28 29  2  0  0  0
 29 30  1  0  0  0
 30 31  1  0  0  0
 31 32  1  0  0  0
 32 33  1  0  0  0
 33 34  1  0  0  0
 34 35  1  0  0  0
 35 36  1  0  0  0
 36 37  1  0  0  0
  6  7  1  0  0  0
 12 13  1  0  0  0
M  CHG 1  11  -1
M  END
> <minimizedAffinity>
-8.27812

$$$$



 37 36  0  0  0  0  0  0  0  0999 V2000
  -40.9929   60.8757   65.5041 O   0  0  0  0  0  0  0  0  0  0  0  0
  -41.6905   60.3827   64.6715 C   0  0  0  0  0  0  0  0  0  0  0  0
  -41.4701   60.4889   63.3612 O   0  0  0  0  0  0  0  0  0  0  0  0
  -40.3298   61.2686   62.9370 C   0  0  0  0  0  0  0  0  0  0  0  0
  -39.6630   60.5052   61.8159 C   0  0  0  0  0  0  0  0  0  0  0  0
  -40.1893   60.9430   60.5631 O   0  0  0  0  0  0  0  0  0  0  0  0
  -39.9709   61.8786   60.4298 H   0  0  0  0  0  0  0  0  0  0  0  0
  -38.1590   60.6248   61.7679 C   0  0  0  0  0  0  0  0  0  0  0  0
  -37.5852   59.4027   62.2740 O   0  0  0  0  0  0  0  0  0  0  0  0
  -37.1165   58.2737   61.2567 P   0  0  0  0  0  0  0  0  0  0  0  0
  -37.5591   56.9791   61.8128 O   0  0  0  0  0  0  0  0  0  0  0  0
  -37.5887   58.6810   59.9188 O   0  0  0  0  0  0  0  0  0  0  0  0
  -38.5586   58.6927   59.9079 H   0  0  0  0  0  0  0  0  0  0  0  0
  -35.5305   58.2728   61.2141 O   0  0  0  0  0  0  0  0  0  0  0  0
  -34.7862   57.5561   62.2270 C   0  0  0  0  0  0  0  0  0  0  0  0
  -34.2056   58.6126   63.1393 C   0  0  0  0  0  0  0  0  0  0  0  0
  -34.6002   58.5256   64.6003 N   0  0  0  0  0  0  0  0  0  0  0  0
  -35.2241   59.8015   65.0670 C   0  0  0  0  0  0  0  0  0  0  0  0
  -33.3868   58.2555   65.4309 C   0  0  0  0  0  0  0  0  0  0  0  0
  -35.5848   57.4145   64.7883 C   0  0  0  0  0  0  0  0  0  0  0  0
  -42.9074   59.5666   64.9620 C   0  0  0  0  0  0  0  0  0  0  0  0
  -42.6106   58.3447   65.8106 C   0  0  0  0  0  0  0  0  0  0  0  0
  -43.5123   57.1720   65.4907 C   0  0  0  0  0  0  0  0  0  0  0  0
  -44.7183   57.5205   64.6505 C   0  0  0  0  0  0  0  0  0  0  0  0
  -46.0164   57.5217   65.4169 C   0  0  0  0  0  0  0  0  0  0  0  0
  -46.8970   58.6866   65.0526 C   0  0  0  0  0  0  0  0  0  0  0  0
  -48.2113   58.3287   64.4243 C   0  0  0  0  0  0  0  0  0  0  0  0
  -49.3569   58.5057   65.3284 C   0  0  0  0  0  0  0  0  0  0  0  0
  -50.3660   59.3390   65.2017 C   0  0  0  0  0  0  0  0  0  0  0  0
  -50.6229   60.3020   64.1012 C   0  0  0  0  0  0  0  0  0  0  0  0
  -51.4041   59.7552   62.9239 C   0  0  0  0  0  0  0  0  0  0  0  0
  -50.5199   59.3544   61.7752 C   0  0  0  0  0  0  0  0  0  0  0  0
  -50.6368   57.9087   61.3655 C   0  0  0  0  0  0  0  0  0  0  0  0
  -49.7620   57.5678   60.1792 C   0  0  0  0  0  0  0  0  0  0  0  0
  -49.2341   56.1603   60.1652 C   0  0  0  0  0  0  0  0  0  0  0  0
  -48.2034   55.9361   59.1325 C   0  0  0  0  0  0  0  0  0  0  0  0
  -48.0878   57.0380   58.1792 C   0  0  0  0  0  0  0  0  0  0  0  0
 17 16  1  0  0  0
 17 18  1  0  0  0
 17 19  1  0  0  0
 17 20  1  0  0  0
  5  6  1  0  0  0
  5  8  1  0  0  0
  5  4  1  0  0  0
 10  9  1  0  0  0
 10 11  2  0  0  0
 10 14  1  0  0  0
 10 12  1  0  0  0
  8  9  1  0  0  0
 15 16  1  0  0  0
 15 14  1  0  0  0
  3  4  1  0  0  0
  3  2  1  0  0  0
  1  2  2  0  0  0
  2 21  1  0  0  0
 21 22  1  0  0  0
 22 23  1  0  0  0
 23 24  1  0  0  0
 24 25  1  0  0  0
 25 26  1  0  0  0
 26 27  1  0  0  0
 27 28  1  0  0  0
 28 29  2  0  0  0
 29 30  1  0  0  0
 30 31  1  0  0  0
 31 32  1  0  0  0
 32 33  1  0  0  0
 33 34  1  0  0  0
 34 35  1  0  0  0
 35 36  1  0  0  0
 36 37  1  0  0  0
  6  7  1  0  0  0
 12 13  1  0  0  0
M  CHG 1  11  -1
M  END
> <minimizedAffinity>
-8.24368

$$$$



 37 36  0  0  0  0  0  0  0  0999 V2000
  -42.6338   60.3849   67.2620 O   0  0  0  0  0  0  0  0  0  0  0  0
  -41.9807   59.8979   66.3907 C   0  0  0  0  0  0  0  0  0  0  0  0
  -40.6642   60.0671   66.2675 O   0  0  0  0  0  0  0  0  0  0  0  0
  -40.1104   60.0464   64.9330 C   0  0  0  0  0  0  0  0  0  0  0  0
  -38.9410   61.0038   64.9233 C   0  0  0  0  0  0  0  0  0  0  0  0
  -39.2042   62.0858   65.8167 O   0  0  0  0  0  0  0  0  0  0  0  0
  -39.2775   61.7467   66.7225 H   0  0  0  0  0  0  0  0  0  0  0  0
  -37.6118   60.3925   65.2952 C   0  0  0  0  0  0  0  0  0  0  0  0
  -37.1350   61.0281   66.4983 O   0  0  0  0  0  0  0  0  0  0  0  0
  -35.8863   62.0104   66.4269 P   0  0  0  0  0  0  0  0  0  0  0  0
  -35.7480   62.6322   67.7594 O   0  0  0  0  0  0  0  0  0  0  0  0
  -34.7601   61.2309   65.8765 O   0  0  0  0  0  0  0  0  0  0  0  0
  -34.5294   60.5174   66.4918 H   0  0  0  0  0  0  0  0  0  0  0  0
  -36.2176   63.1575   65.3822 O   0  0  0  0  0  0  0  0  0  0  0  0
  -35.2056   63.5836   64.4399 C   0  0  0  0  0  0  0  0  0  0  0  0
  -34.3863   64.6317   65.1580 C   0  0  0  0  0  0  0  0  0  0  0  0
  -32.8879   64.5787   64.9346 N   0  0  0  0  0  0  0  0  0  0  0  0
  -32.5016   63.3619   64.1569 C   0  0  0  0  0  0  0  0  0  0  0  0
  -32.1863   64.5449   66.2544 C   0  0  0  0  0  0  0  0  0  0  0  0
  -32.4513   65.7914   64.1742 C   0  0  0  0  0  0  0  0  0  0  0  0
  -42.5274   59.0204   65.3127 C   0  0  0  0  0  0  0  0  0  0  0  0
  -42.6686   57.5728   65.7440 C   0  0  0  0  0  0  0  0  0  0  0  0
  -44.0146   56.9801   65.3867 C   0  0  0  0  0  0  0  0  0  0  0  0
  -44.9103   57.8972   64.5875 C   0  0  0  0  0  0  0  0  0  0  0  0
  -46.2254   58.2022   65.2580 C   0  0  0  0  0  0  0  0  0  0  0  0
  -46.3310   59.6412   65.6866 C   0  0  0  0  0  0  0  0  0  0  0  0
  -47.6810   60.2696   65.5055 C   0  0  0  0  0  0  0  0  0  0  0  0
  -48.7911   59.3159   65.6435 C   0  0  0  0  0  0  0  0  0  0  0  0
  -49.9806   59.3732   65.0863 C   0  0  0  0  0  0  0  0  0  0  0  0
  -50.5044   60.4038   64.1547 C   0  0  0  0  0  0  0  0  0  0  0  0
  -51.3482   59.8813   63.0100 C   0  0  0  0  0  0  0  0  0  0  0  0
  -50.5235   59.2615   61.9156 C   0  0  0  0  0  0  0  0  0  0  0  0
  -50.5855   57.7567   61.8559 C   0  0  0  0  0  0  0  0  0  0  0  0
  -50.8294   57.2398   60.4552 C   0  0  0  0  0  0  0  0  0  0  0  0
  -49.5942   57.0895   59.6116 C   0  0  0  0  0  0  0  0  0  0  0  0
  -48.8760   55.8226   59.8529 C   0  0  0  0  0  0  0  0  0  0  0  0
  -47.8232   55.5571   58.8744 C   0  0  0  0  0  0  0  0  0  0  0  0
 17 16  1  0  0  0
 17 18  1  0  0  0
 17 19  1  0  0  0
 17 20  1  0  0  0
  5  6  1  0  0  0
  5  8  1  0  0  0
  5  4  1  0  0  0
 10  9  1  0  0  0
 10 11  2  0  0  0
 10 14  1  0  0  0
 10 12  1  0  0  0
  8  9  1  0  0  0
 15 16  1  0  0  0
 15 14  1  0  0  0
  3  4  1  0  0  0
  3  2  1  0  0  0
  1  2  2  0  0  0
  2 21  1  0  0  0
 21 22  1  0  0  0
 22 23  1  0  0  0
 23 24  1  0  0  0
 24 25  1  0  0  0
 25 26  1  0  0  0
 26 27  1  0  0  0
 27 28  1  0  0  0
 28 29  2  0  0  0
 29 30  1  0  0  0
 30 31  1  0  0  0
 31 32  1  0  0  0
 32 33  1  0  0  0
 33 34  1  0  0  0
 34 35  1  0  0  0
 35 36  1  0  0  0
 36 37  1  0  0  0
  6  7  1  0  0  0
 12 13  1  0  0  0
M  CHG 1  11  -1
M  END
> <minimizedAffinity>
-8.17981

$$$$



 37 36  0  0  0  0  0  0  0  0999 V2000
  -42.6991   60.5795   64.0747 O   0  0  0  0  0  0  0  0  0  0  0  0
  -42.5264   60.1372   65.1690 C   0  0  0  0  0  0  0  0  0  0  0  0
  -41.4260   60.3512   65.8904 O   0  0  0  0  0  0  0  0  0  0  0  0
  -40.1710   59.8825   65.3488 C   0  0  0  0  0  0  0  0  0  0  0  0
  -39.2725   61.0891   65.2035 C   0  0  0  0  0  0  0  0  0  0  0  0
  -39.8610   62.2042   65.8732 O   0  0  0  0  0  0  0  0  0  0  0  0
  -39.9212   62.0160   66.8228 H   0  0  0  0  0  0  0  0  0  0  0  0
  -37.8685   60.9068   65.7268 C   0  0  0  0  0  0  0  0  0  0  0  0
  -37.3204   62.2049   66.0321 O   0  0  0  0  0  0  0  0  0  0  0  0
  -35.7858   62.3372   66.4284 P   0  0  0  0  0  0  0  0  0  0  0  0
  -35.2477   63.4997   65.6933 O   0  0  0  0  0  0  0  0  0  0  0  0
  -35.7227   62.3266   67.9031 O   0  0  0  0  0  0  0  0  0  0  0  0
  -36.1779   63.1090   68.2519 H   0  0  0  0  0  0  0  0  0  0  0  0
  -35.0286   61.0402   65.9172 O   0  0  0  0  0  0  0  0  0  0  0  0
  -34.1659   61.1231   64.7585 C   0  0  0  0  0  0  0  0  0  0  0  0
  -34.5228   59.9376   63.8909 C   0  0  0  0  0  0  0  0  0  0  0  0
  -33.4402   58.8926   63.7072 N   0  0  0  0  0  0  0  0  0  0  0  0
  -32.9837   58.3523   65.0242 C   0  0  0  0  0  0  0  0  0  0  0  0
  -32.2678   59.5043   63.0095 C   0  0  0  0  0  0  0  0  0  0  0  0
  -33.9701   57.7613   62.8834 C   0  0  0  0  0  0  0  0  0  0  0  0
  -43.5110   59.2875   65.9035 C   0  0  0  0  0  0  0  0  0  0  0  0
  -43.9041   58.0400   65.1349 C   0  0  0  0  0  0  0  0  0  0  0  0
  -45.3831   57.9839   64.8193 C   0  0  0  0  0  0  0  0  0  0  0  0
  -46.2085   59.0537   65.4947 C   0  0  0  0  0  0  0  0  0  0  0  0
  -47.5565   59.2773   64.8583 C   0  0  0  0  0  0  0  0  0  0  0  0
  -48.3767   58.0170   64.7931 C   0  0  0  0  0  0  0  0  0  0  0  0
  -49.8278   58.1744   65.1392 C   0  0  0  0  0  0  0  0  0  0  0  0
  -50.2736   59.5751   65.1588 C   0  0  0  0  0  0  0  0  0  0  0  0
  -50.9147   60.2331   64.2182 C   0  0  0  0  0  0  0  0  0  0  0  0
  -51.3752   59.7266   62.9007 C   0  0  0  0  0  0  0  0  0  0  0  0
  -50.2986   59.5789   61.8451 C   0  0  0  0  0  0  0  0  0  0  0  0
  -50.3597   58.2552   61.1336 C   0  0  0  0  0  0  0  0  0  0  0  0
  -49.2081   57.3285   61.4281 C   0  0  0  0  0  0  0  0  0  0  0  0
  -48.5086   56.8532   60.1738 C   0  0  0  0  0  0  0  0  0  0  0  0
  -49.2229   57.1733   58.8903 C   0  0  0  0  0  0  0  0  0  0  0  0
  -48.5197   56.6722   57.6930 C   0  0  0  0  0  0  0  0  0  0  0  0
  -47.1458   57.1580   57.5812 C   0  0  0  0  0  0  0  0  0  0  0  0
 17 16  1  0  0  0
 17 18  1  0  0  0
 17 19  1  0  0  0
 17 20  1  0  0  0
  5  6  1  0  0  0
  5  8  1  0  0  0
  5  4  1  0  0  0
 10  9  1  0  0  0
 10 11  2  0  0  0
 10 14  1  0  0  0
 10 12  1  0  0  0
  8  9  1  0  0  0
 15 16  1  0  0  0
 15 14  1  0  0  0
  3  4  1  0  0  0
  3  2  1  0  0  0
  1  2  2  0  0  0
  2 21  1  0  0  0
 21 22  1  0  0  0
 22 23  1  0  0  0
 23 24  1  0  0  0
 24 25  1  0  0  0
 25 26  1  0  0  0
 26 27  1  0  0  0
 27 28  1  0  0  0
 28 29  2  0  0  0
 29 30  1  0  0  0
 30 31  1  0  0  0
 31 32  1  0  0  0
 32 33  1  0  0  0
 33 34  1  0  0  0
 34 35  1  0  0  0
 35 36  1  0  0  0
 36 37  1  0  0  0
  6  7  1  0  0  0
 12 13  1  0  0  0
M  CHG 1  11  -1
M  END
> <minimizedAffinity>
-8.17639

$$$$



 37 36  0  0  0  0  0  0  0  0999 V2000
  -41.2645   61.2302   65.6934 O   0  0  0  0  0  0  0  0  0  0  0  0
  -41.4435   60.3321   64.9289 C   0  0  0  0  0  0  0  0  0  0  0  0
  -41.8188   60.5010   63.6611 O   0  0  0  0  0  0  0  0  0  0  0  0
  -41.1140   61.4937   62.8827 C   0  0  0  0  0  0  0  0  0  0  0  0
  -40.1556   60.7511   61.9804 C   0  0  0  0  0  0  0  0  0  0  0  0
  -40.4252   61.0880   60.6195 O   0  0  0  0  0  0  0  0  0  0  0  0
  -40.2596   62.0338   60.4816 H   0  0  0  0  0  0  0  0  0  0  0  0
  -38.6932   61.0072   62.2531 C   0  0  0  0  0  0  0  0  0  0  0  0
  -38.4129   60.6531   63.6223 O   0  0  0  0  0  0  0  0  0  0  0  0
  -37.4855   61.5969   64.5047 P   0  0  0  0  0  0  0  0  0  0  0  0
  -36.6809   62.4094   63.5700 O   0  0  0  0  0  0  0  0  0  0  0  0
  -38.3669   62.2771   65.4739 O   0  0  0  0  0  0  0  0  0  0  0  0
  -38.9895   62.8493   64.9986 H   0  0  0  0  0  0  0  0  0  0  0  0
  -36.4936   60.6795   65.3363 O   0  0  0  0  0  0  0  0  0  0  0  0
  -36.3039   59.2971   64.9533 C   0  0  0  0  0  0  0  0  0  0  0  0
  -35.4322   59.3255   63.7184 C   0  0  0  0  0  0  0  0  0  0  0  0
  -33.9390   59.2068   63.9504 N   0  0  0  0  0  0  0  0  0  0  0  0
  -33.2901   60.5531   63.9848 C   0  0  0  0  0  0  0  0  0  0  0  0
  -33.3233   58.4079   62.8467 C   0  0  0  0  0  0  0  0  0  0  0  0
  -33.6875   58.5208   65.2563 C   0  0  0  0  0  0  0  0  0  0  0  0
  -41.2684   58.8872   65.2648 C   0  0  0  0  0  0  0  0  0  0  0  0
  -42.3115   58.3770   66.2411 C   0  0  0  0  0  0  0  0  0  0  0  0
  -43.2308   57.3402   65.6325 C   0  0  0  0  0  0  0  0  0  0  0  0
  -44.3303   57.9091   64.7669 C   0  0  0  0  0  0  0  0  0  0  0  0
  -45.0397   59.0899   65.3791 C   0  0  0  0  0  0  0  0  0  0  0  0
  -46.4606   58.7716   65.7600 C   0  0  0  0  0  0  0  0  0  0  0  0
  -47.4055   58.5709   64.6122 C   0  0  0  0  0  0  0  0  0  0  0  0
  -48.5809   57.7595   64.9600 C   0  0  0  0  0  0  0  0  0  0  0  0
  -49.7958   58.1753   65.2424 C   0  0  0  0  0  0  0  0  0  0  0  0
  -50.3025   59.5707   65.2613 C   0  0  0  0  0  0  0  0  0  0  0  0
  -50.9513   60.0475   63.9779 C   0  0  0  0  0  0  0  0  0  0  0  0
  -49.9502   60.5325   62.9658 C   0  0  0  0  0  0  0  0  0  0  0  0
  -50.0581   59.8805   61.6111 C   0  0  0  0  0  0  0  0  0  0  0  0
  -50.5338   58.4467   61.6920 C   0  0  0  0  0  0  0  0  0  0  0  0
  -50.2178   57.6056   60.4868 C   0  0  0  0  0  0  0  0  0  0  0  0
  -48.8835   56.9773   60.5499 C   0  0  0  0  0  0  0  0  0  0  0  0
  -48.7328   55.8429   59.6407 C   0  0  0  0  0  0  0  0  0  0  0  0
 17 16  1  0  0  0
 17 18  1  0  0  0
 17 19  1  0  0  0
 17 20  1  0  0  0
  5  6  1  0  0  0
  5  8  1  0  0  0
  5  4  1  0  0  0
 10  9  1  0  0  0
 10 11  2  0  0  0
 10 14  1  0  0  0
 10 12  1  0  0  0
  8  9  1  0  0  0
 15 16  1  0  0  0
 15 14  1  0  0  0
  3  4  1  0  0  0
  3  2  1  0  0  0
  1  2  2  0  0  0
  2 21  1  0  0  0
 21 22  1  0  0  0
 22 23  1  0  0  0
 23 24  1  0  0  0
 24 25  1  0  0  0
 25 26  1  0  0  0
 26 27  1  0  0  0
 27 28  1  0  0  0
 28 29  2  0  0  0
 29 30  1  0  0  0
 30 31  1  0  0  0
 31 32  1  0  0  0
 32 33  1  0  0  0
 33 34  1  0  0  0
 34 35  1  0  0  0
 35 36  1  0  0  0
 36 37  1  0  0  0
  6  7  1  0  0  0
 12 13  1  0  0  0
M  CHG 1  11  -1
M  END
> <minimizedAffinity>
-8.17634

$$$$



 37 36  0  0  0  0  0  0  0  0999 V2000
  -42.3659   60.2443   66.6246 O   0  0  0  0  0  0  0  0  0  0  0  0
  -42.4154   59.9512   65.4694 C   0  0  0  0  0  0  0  0  0  0  0  0
  -41.4079   60.1297   64.6150 O   0  0  0  0  0  0  0  0  0  0  0  0
  -40.0696   59.8801   65.0995 C   0  0  0  0  0  0  0  0  0  0  0  0
  -39.3154   61.1870   65.0118 C   0  0  0  0  0  0  0  0  0  0  0  0
  -39.9480   62.1585   65.8449 O   0  0  0  0  0  0  0  0  0  0  0  0
  -39.8995   61.8718   66.7703 H   0  0  0  0  0  0  0  0  0  0  0  0
  -37.8571   61.1098   65.3941 C   0  0  0  0  0  0  0  0  0  0  0  0
  -37.3996   62.4356   65.7282 O   0  0  0  0  0  0  0  0  0  0  0  0
  -35.8402   62.7200   65.8580 P   0  0  0  0  0  0  0  0  0  0  0  0
  -35.6175   63.3101   67.1934 O   0  0  0  0  0  0  0  0  0  0  0  0
  -35.1461   61.4673   65.5002 O   0  0  0  0  0  0  0  0  0  0  0  0
  -35.3673   60.7790   66.1469 H   0  0  0  0  0  0  0  0  0  0  0  0
  -35.4422   63.8040   64.7700 O   0  0  0  0  0  0  0  0  0  0  0  0
  -34.5726   64.9012   65.1354 C   0  0  0  0  0  0  0  0  0  0  0  0
  -33.1617   64.3923   64.9452 C   0  0  0  0  0  0  0  0  0  0  0  0
  -32.2771   65.2029   64.0189 N   0  0  0  0  0  0  0  0  0  0  0  0
  -33.0744   65.8191   62.9146 C   0  0  0  0  0  0  0  0  0  0  0  0
  -31.2353   64.3147   63.4179 C   0  0  0  0  0  0  0  0  0  0  0  0
  -31.6081   66.2950   64.7931 C   0  0  0  0  0  0  0  0  0  0  0  0
  -43.6012   59.3340   64.8029 C   0  0  0  0  0  0  0  0  0  0  0  0
  -44.7351   59.0414   65.7673 C   0  0  0  0  0  0  0  0  0  0  0  0
  -45.0585   57.5663   65.8662 C   0  0  0  0  0  0  0  0  0  0  0  0
  -46.5282   57.2569   66.0275 C   0  0  0  0  0  0  0  0  0  0  0  0
  -47.4397   58.2775   65.3952 C   0  0  0  0  0  0  0  0  0  0  0  0
  -48.6740   57.6544   64.8005 C   0  0  0  0  0  0  0  0  0  0  0  0
  -49.9766   58.2339   65.2670 C   0  0  0  0  0  0  0  0  0  0  0  0
  -50.0725   59.6873   65.0681 C   0  0  0  0  0  0  0  0  0  0  0  0
  -50.6514   60.3317   64.0791 C   0  0  0  0  0  0  0  0  0  0  0  0
  -51.3786   59.7601   62.9177 C   0  0  0  0  0  0  0  0  0  0  0  0
  -50.5086   59.2817   61.7734 C   0  0  0  0  0  0  0  0  0  0  0  0
  -50.4827   57.7829   61.6500 C   0  0  0  0  0  0  0  0  0  0  0  0
  -50.6718   57.2634   60.2478 C   0  0  0  0  0  0  0  0  0  0  0  0
  -49.5848   57.7281   59.3038 C   0  0  0  0  0  0  0  0  0  0  0  0
  -48.7023   56.6357   58.7674 C   0  0  0  0  0  0  0  0  0  0  0  0
  -47.7677   57.1028   57.7246 C   0  0  0  0  0  0  0  0  0  0  0  0
  -47.7688   56.2651   56.5269 C   0  0  0  0  0  0  0  0  0  0  0  0
 17 16  1  0  0  0
 17 18  1  0  0  0
 17 19  1  0  0  0
 17 20  1  0  0  0
  5  6  1  0  0  0
  5  8  1  0  0  0
  5  4  1  0  0  0
 10  9  1  0  0  0
 10 11  2  0  0  0
 10 14  1  0  0  0
 10 12  1  0  0  0
  8  9  1  0  0  0
 15 16  1  0  0  0
 15 14  1  0  0  0
  3  4  1  0  0  0
  3  2  1  0  0  0
  1  2  2  0  0  0
  2 21  1  0  0  0
 21 22  1  0  0  0
 22 23  1  0  0  0
 23 24  1  0  0  0
 24 25  1  0  0  0
 25 26  1  0  0  0
 26 27  1  0  0  0
 27 28  1  0  0  0
 28 29  2  0  0  0
 29 30  1  0  0  0
 30 31  1  0  0  0
 31 32  1  0  0  0
 32 33  1  0  0  0
 33 34  1  0  0  0
 34 35  1  0  0  0
 35 36  1  0  0  0
 36 37  1  0  0  0
  6  7  1  0  0  0
 12 13  1  0  0  0
M  CHG 1  11  -1
M  END
> <minimizedAffinity>
-8.10581

$$$$



 37 36  0  0  0  0  0  0  0  0999 V2000
  -39.8716   60.9109   60.7562 O   0  0  0  0  0  0  0  0  0  0  0  0
  -39.3869   60.7747   61.8376 C   0  0  0  0  0  0  0  0  0  0  0  0
  -38.1119   61.0441   62.1183 O   0  0  0  0  0  0  0  0  0  0  0  0
  -37.6554   60.7847   63.4645 C   0  0  0  0  0  0  0  0  0  0  0  0
  -37.3553   62.1243   64.0968 C   0  0  0  0  0  0  0  0  0  0  0  0
  -38.1905   62.3089   65.2399 O   0  0  0  0  0  0  0  0  0  0  0  0
  -37.9812   61.6350   65.9054 H   0  0  0  0  0  0  0  0  0  0  0  0
  -35.9200   62.3242   64.5191 C   0  0  0  0  0  0  0  0  0  0  0  0
  -35.8698   63.3969   65.4812 O   0  0  0  0  0  0  0  0  0  0  0  0
  -34.9375   63.2611   66.7624 P   0  0  0  0  0  0  0  0  0  0  0  0
  -35.6355   63.9305   67.8786 O   0  0  0  0  0  0  0  0  0  0  0  0
  -34.5869   61.8326   66.8866 O   0  0  0  0  0  0  0  0  0  0  0  0
  -35.3897   61.3165   67.0597 H   0  0  0  0  0  0  0  0  0  0  0  0
  -33.5910   64.0518   66.4812 O   0  0  0  0  0  0  0  0  0  0  0  0
  -33.5497   65.0475   65.4321 C   0  0  0  0  0  0  0  0  0  0  0  0
  -32.0980   65.1605   65.0256 C   0  0  0  0  0  0  0  0  0  0  0  0
  -31.8122   65.0933   63.5385 N   0  0  0  0  0  0  0  0  0  0  0  0
  -32.7321   65.9883   62.7719 C   0  0  0  0  0  0  0  0  0  0  0  0
  -31.9989   63.6904   63.0562 C   0  0  0  0  0  0  0  0  0  0  0  0
  -30.4019   65.5211   63.2791 C   0  0  0  0  0  0  0  0  0  0  0  0
  -40.1272   60.2932   63.0423 C   0  0  0  0  0  0  0  0  0  0  0  0
  -41.3934   61.0837   63.3127 C   0  0  0  0  0  0  0  0  0  0  0  0
  -42.2296   60.4937   64.4277 C   0  0  0  0  0  0  0  0  0  0  0  0
  -41.5117   59.4683   65.2733 C   0  0  0  0  0  0  0  0  0  0  0  0
  -42.3809   58.3133   65.7009 C   0  0  0  0  0  0  0  0  0  0  0  0
  -43.8108   58.4771   65.2604 C   0  0  0  0  0  0  0  0  0  0  0  0
  -44.5331   57.2042   64.9315 C   0  0  0  0  0  0  0  0  0  0  0  0
  -45.6221   56.8933   65.8688 C   0  0  0  0  0  0  0  0  0  0  0  0
  -46.8946   57.2065   65.7626 C   0  0  0  0  0  0  0  0  0  0  0  0
  -47.5669   57.9358   64.6579 C   0  0  0  0  0  0  0  0  0  0  0  0
  -48.5516   59.0050   65.0851 C   0  0  0  0  0  0  0  0  0  0  0  0
  -49.9755   58.6483   64.7573 C   0  0  0  0  0  0  0  0  0  0  0  0
  -50.7380   59.7177   64.0179 C   0  0  0  0  0  0  0  0  0  0  0  0
  -50.9656   59.3694   62.5634 C   0  0  0  0  0  0  0  0  0  0  0  0
  -50.3287   58.0845   62.1127 C   0  0  0  0  0  0  0  0  0  0  0  0
  -51.0865   57.4034   61.0445 C   0  0  0  0  0  0  0  0  0  0  0  0
  -50.4365   57.4729   59.7373 C   0  0  0  0  0  0  0  0  0  0  0  0
 17 16  1  0  0  0
 17 18  1  0  0  0
 17 19  1  0  0  0
 17 20  1  0  0  0
  5  6  1  0  0  0
  5  8  1  0  0  0
  5  4  1  0  0  0
 10  9  1  0  0  0
 10 11  2  0  0  0
 10 14  1  0  0  0
 10 12  1  0  0  0
  8  9  1  0  0  0
 15 16  1  0  0  0
 15 14  1  0  0  0
  3  4  1  0  0  0
  3  2  1  0  0  0
  1  2  2  0  0  0
  2 21  1  0  0  0
 21 22  1  0  0  0
 22 23  1  0  0  0
 23 24  1  0  0  0
 24 25  1  0  0  0
 25 26  1  0  0  0
 26 27  1  0  0  0
 27 28  1  0  0  0
 28 29  2  0  0  0
 29 30  1  0  0  0
 30 31  1  0  0  0
 31 32  1  0  0  0
 32 33  1  0  0  0
 33 34  1  0  0  0
 34 35  1  0  0  0
 35 36  1  0  0  0
 36 37  1  0  0  0
  6  7  1  0  0  0
 12 13  1  0  0  0
M  CHG 1  11  -1
M  END
> <minimizedAffinity>
-8.10268

$$$$
