


 37 36  0  0  0  0  0  0  0  0999 V2000
  -41.7539   58.3267   65.8785 O   0  0  0  0  0  0  0  0  0  0  0  0
  -42.2555   57.4691   65.2182 C   0  0  0  0  0  0  0  0  0  0  0  0
  -43.6354   56.9373   65.4282 C   0  0  0  0  0  0  0  0  0  0  0  0
  -44.6261   58.0105   65.8385 C   0  0  0  0  0  0  0  0  0  0  0  0
  -45.6224   58.3405   64.7482 C   0  0  0  0  0  0  0  0  0  0  0  0
  -47.0651   58.0970   65.1238 C   0  0  0  0  0  0  0  0  0  0  0  0
  -47.6769   59.2029   65.9454 C   0  0  0  0  0  0  0  0  0  0  0  0
  -48.7069   59.9865   65.1768 C   0  0  0  0  0  0  0  0  0  0  0  0
  -50.1353   59.6391   65.4756 C   0  0  0  0  0  0  0  0  0  0  0  0
  -51.0630   60.0092   64.3970 C   0  0  0  0  0  0  0  0  0  0  0  0
  -51.2638   59.3897   63.2548 C   0  0  0  0  0  0  0  0  0  0  0  0
  -50.6227   58.1426   62.7669 C   0  0  0  0  0  0  0  0  0  0  0  0
  -51.0013   57.7200   61.3621 C   0  0  0  0  0  0  0  0  0  0  0  0
  -49.8282   57.7139   60.4209 C   0  0  0  0  0  0  0  0  0  0  0  0
  -49.2659   56.3472   60.1245 C   0  0  0  0  0  0  0  0  0  0  0  0
  -48.0673   56.3988   59.2030 C   0  0  0  0  0  0  0  0  0  0  0  0
  -47.3711   57.7298   59.1432 C   0  0  0  0  0  0  0  0  0  0  0  0
  -47.0171   58.1396   57.7699 C   0  0  0  0  0  0  0  0  0  0  0  0
  -47.0569   57.0400   56.8078 C   0  0  0  0  0  0  0  0  0  0  0  0
  -41.6427   56.8612   64.2024 O   0  0  0  0  0  0  0  0  0  0  0  0
  -41.7023   57.5005   62.9079 C   0  0  0  0  0  0  0  0  0  0  0  0
  -40.3691   58.1771   62.6857 C   0  0  0  0  0  0  0  0  0  0  0  0
  -39.4593   57.7851   63.7136 O   0  0  0  0  0  0  0  0  0  0  0  0
  -39.2986   56.8302   63.6564 H   0  0  0  0  0  0  0  0  0  0  0  0
  -39.7258   57.8976   61.3491 C   0  0  0  0  0  0  0  0  0  0  0  0
  -38.3482   57.5339   61.5699 O   0  0  0  0  0  0  0  0  0  0  0  0
  -37.1966   58.5816   61.2453 P   0  0  0  0  0  0  0  0  0  0  0  0
  -37.5136   59.1806   59.9331 O   0  0  0  0  0  0  0  0  0  0  0  0
  -37.0721   59.4594   62.4256 O   0  0  0  0  0  0  0  0  0  0  0  0
  -37.8933   59.9623   62.5425 H   0  0  0  0  0  0  0  0  0  0  0  0
  -35.8301   57.7879   61.1050 O   0  0  0  0  0  0  0  0  0  0  0  0
  -35.1002   57.4008   62.2929 C   0  0  0  0  0  0  0  0  0  0  0  0
  -33.7160   57.9889   62.1382 C   0  0  0  0  0  0  0  0  0  0  0  0
  -33.1760   58.7522   63.3313 N   0  0  0  0  0  0  0  0  0  0  0  0
  -31.8229   58.2521   63.7237 C   0  0  0  0  0  0  0  0  0  0  0  0
  -34.1024   58.5853   64.4929 C   0  0  0  0  0  0  0  0  0  0  0  0
  -33.0687   60.2053   62.9900 C   0  0  0  0  0  0  0  0  0  0  0  0
 34 33  1  0  0  0
 34 35  1  0  0  0
 34 36  1  0  0  0
 34 37  1  0  0  0
 22 23  1  0  0  0
 22 25  1  0  0  0
 22 21  1  0  0  0
 27 26  1  0  0  0
 27 28  2  0  0  0
 27 31  1  0  0  0
 27 29  1  0  0  0
 25 26  1  0  0  0
 32 33  1  0  0  0
 32 31  1  0  0  0
 20 21  1  0  0  0
 20  2  1  0  0  0
  1  2  2  0  0  0
  2  3  1  0  0  0
  3  4  1  0  0  0
  4  5  1  0  0  0
  5  6  1  0  0  0
  6  7  1  0  0  0
  7  8  1  0  0  0
  8  9  1  0  0  0
  9 10  1  0  0  0
 10 11  2  0  0  0
 11 12  1  0  0  0
 12 13  1  0  0  0
 13 14  1  0  0  0
 14 15  1  0  0  0
 15 16  1  0  0  0
 16 17  1  0  0  0
 17 18  1  0  0  0
 18 19  1  0  0  0
 23 24  1  0  0  0
 29 30  1  0  0  0
M  CHG 1  28  -1
M  END
> <minimizedAffinity>
-7.95496

> <CNNscore>
0.7164307833

> <CNNaffinity>
6.5845556259

> <CNN_VS>
4.7173781395

> <CNNaffinity_variance>
0.1985672563

$$$$



 37 36  0  0  0  0  0  0  0  0999 V2000
  -40.4855   58.1719   65.4151 O   0  0  0  0  0  0  0  0  0  0  0  0
  -40.6878   57.5855   64.3961 C   0  0  0  0  0  0  0  0  0  0  0  0
  -41.8226   56.6397   64.1749 C   0  0  0  0  0  0  0  0  0  0  0  0
  -42.9710   56.8584   65.1418 C   0  0  0  0  0  0  0  0  0  0  0  0
  -44.1084   57.6518   64.5358 C   0  0  0  0  0  0  0  0  0  0  0  0
  -45.4495   57.4256   65.1931 C   0  0  0  0  0  0  0  0  0  0  0  0
  -46.3817   58.6066   65.1002 C   0  0  0  0  0  0  0  0  0  0  0  0
  -47.1495   58.8335   66.3747 C   0  0  0  0  0  0  0  0  0  0  0  0
  -48.4486   59.5677   66.2219 C   0  0  0  0  0  0  0  0  0  0  0  0
  -49.6171   58.6779   66.1592 C   0  0  0  0  0  0  0  0  0  0  0  0
  -50.7182   58.8370   65.4585 C   0  0  0  0  0  0  0  0  0  0  0  0
  -51.0586   59.9452   64.5308 C   0  0  0  0  0  0  0  0  0  0  0  0
  -51.2267   59.5519   63.0774 C   0  0  0  0  0  0  0  0  0  0  0  0
  -49.9924   59.8121   62.2583 C   0  0  0  0  0  0  0  0  0  0  0  0
  -49.2703   58.5722   61.7968 C   0  0  0  0  0  0  0  0  0  0  0  0
  -49.1660   58.4868   60.2900 C   0  0  0  0  0  0  0  0  0  0  0  0
  -48.0405   57.6304   59.7805 C   0  0  0  0  0  0  0  0  0  0  0  0
  -47.8932   57.6767   58.3124 C   0  0  0  0  0  0  0  0  0  0  0  0
  -46.6434   58.2946   57.8738 C   0  0  0  0  0  0  0  0  0  0  0  0
  -39.9169   57.6914   63.3138 O   0  0  0  0  0  0  0  0  0  0  0  0
  -38.6028   58.2678   63.4839 C   0  0  0  0  0  0  0  0  0  0  0  0
  -38.6202   59.6188   62.8065 C   0  0  0  0  0  0  0  0  0  0  0  0
  -39.2218   60.5791   63.6750 O   0  0  0  0  0  0  0  0  0  0  0  0
  -38.6804   60.6763   64.4740 H   0  0  0  0  0  0  0  0  0  0  0  0
  -37.2675   60.1398   62.3856 C   0  0  0  0  0  0  0  0  0  0  0  0
  -36.3775   59.0187   62.2127 O   0  0  0  0  0  0  0  0  0  0  0  0
  -34.9529   59.0292   62.9197 P   0  0  0  0  0  0  0  0  0  0  0  0
  -34.6195   60.4403   63.2005 O   0  0  0  0  0  0  0  0  0  0  0  0
  -35.0244   58.0703   64.0397 O   0  0  0  0  0  0  0  0  0  0  0  0
  -35.6710   58.3826   64.6919 H   0  0  0  0  0  0  0  0  0  0  0  0
  -33.8846   58.4683   61.8896 O   0  0  0  0  0  0  0  0  0  0  0  0
  -32.7801   57.6651   62.3677 C   0  0  0  0  0  0  0  0  0  0  0  0
  -31.6666   57.8519   61.3623 C   0  0  0  0  0  0  0  0  0  0  0  0
  -30.2827   57.4247   61.8093 N   0  0  0  0  0  0  0  0  0  0  0  0
  -29.2285   58.2967   61.2066 C   0  0  0  0  0  0  0  0  0  0  0  0
  -30.0340   56.0125   61.3859 C   0  0  0  0  0  0  0  0  0  0  0  0
  -30.1862   57.5177   63.2997 C   0  0  0  0  0  0  0  0  0  0  0  0
 34 33  1  0  0  0
 34 35  1  0  0  0
 34 36  1  0  0  0
 34 37  1  0  0  0
 22 23  1  0  0  0
 22 25  1  0  0  0
 22 21  1  0  0  0
 27 26  1  0  0  0
 27 28  2  0  0  0
 27 31  1  0  0  0
 27 29  1  0  0  0
 25 26  1  0  0  0
 32 33  1  0  0  0
 32 31  1  0  0  0
 20 21  1  0  0  0
 20  2  1  0  0  0
  1  2  2  0  0  0
  2  3  1  0  0  0
  3  4  1  0  0  0
  4  5  1  0  0  0
  5  6  1  0  0  0
  6  7  1  0  0  0
  7  8  1  0  0  0
  8  9  1  0  0  0
  9 10  1  0  0  0
 10 11  2  0  0  0
 11 12  1  0  0  0
 12 13  1  0  0  0
 13 14  1  0  0  0
 14 15  1  0  0  0
 15 16  1  0  0  0
 16 17  1  0  0  0
 17 18  1  0  0  0
 18 19  1  0  0  0
 23 24  1  0  0  0
 29 30  1  0  0  0
M  CHG 1  28  -1
M  END
> <minimizedAffinity>
-7.67624

> <CNNscore>
0.6992878914

> <CNNaffinity>
6.1830353737

> <CNN_VS>
4.3237218857

> <CNNaffinity_variance>
0.3587294221

$$$$



 37 36  0  0  0  0  0  0  0  0999 V2000
  -40.8795   61.3450   66.2649 O   0  0  0  0  0  0  0  0  0  0  0  0
  -40.7453   60.1979   65.9663 C   0  0  0  0  0  0  0  0  0  0  0  0
  -41.7645   59.1343   66.2134 C   0  0  0  0  0  0  0  0  0  0  0  0
  -42.2699   58.4920   64.9353 C   0  0  0  0  0  0  0  0  0  0  0  0
  -43.6493   57.8876   65.0852 C   0  0  0  0  0  0  0  0  0  0  0  0
  -44.2086   57.9440   66.4873 C   0  0  0  0  0  0  0  0  0  0  0  0
  -45.7050   58.1182   66.5408 C   0  0  0  0  0  0  0  0  0  0  0  0
  -46.3555   57.9102   65.1996 C   0  0  0  0  0  0  0  0  0  0  0  0
  -47.7754   58.3819   65.0924 C   0  0  0  0  0  0  0  0  0  0  0  0
  -47.8989   59.7378   64.5381 C   0  0  0  0  0  0  0  0  0  0  0  0
  -48.9990   60.4183   64.3029 C   0  0  0  0  0  0  0  0  0  0  0  0
  -50.4017   60.0035   64.5569 C   0  0  0  0  0  0  0  0  0  0  0  0
  -51.2260   59.6974   63.3231 C   0  0  0  0  0  0  0  0  0  0  0  0
  -50.6887   58.5315   62.5396 C   0  0  0  0  0  0  0  0  0  0  0  0
  -49.9506   58.9061   61.2800 C   0  0  0  0  0  0  0  0  0  0  0  0
  -48.9913   57.8282   60.8256 C   0  0  0  0  0  0  0  0  0  0  0  0
  -48.7158   57.8074   59.3479 C   0  0  0  0  0  0  0  0  0  0  0  0
  -47.2845   57.6439   59.0256 C   0  0  0  0  0  0  0  0  0  0  0  0
  -46.8583   58.4239   57.8653 C   0  0  0  0  0  0  0  0  0  0  0  0
  -39.6557   59.7080   65.3750 O   0  0  0  0  0  0  0  0  0  0  0  0
  -38.4267   59.7076   66.1350 C   0  0  0  0  0  0  0  0  0  0  0  0
  -37.4574   60.6136   65.4111 C   0  0  0  0  0  0  0  0  0  0  0  0
  -37.4948   61.9153   65.9963 O   0  0  0  0  0  0  0  0  0  0  0  0
  -37.1927   61.8648   66.9166 H   0  0  0  0  0  0  0  0  0  0  0  0
  -36.0249   60.1380   65.4002 C   0  0  0  0  0  0  0  0  0  0  0  0
  -35.9598   58.8946   64.6732 O   0  0  0  0  0  0  0  0  0  0  0  0
  -35.7659   58.9156   63.0948 P   0  0  0  0  0  0  0  0  0  0  0  0
  -34.9056   60.0740   62.7798 O   0  0  0  0  0  0  0  0  0  0  0  0
  -35.3244   57.5634   62.7004 O   0  0  0  0  0  0  0  0  0  0  0  0
  -34.4572   57.3788   63.0938 H   0  0  0  0  0  0  0  0  0  0  0  0
  -37.1830   59.1604   62.4249 O   0  0  0  0  0  0  0  0  0  0  0  0
  -37.5144   58.4943   61.1839 C   0  0  0  0  0  0  0  0  0  0  0  0
  -38.8651   57.8526   61.4062 C   0  0  0  0  0  0  0  0  0  0  0  0
  -40.0544   58.5684   60.7972 N   0  0  0  0  0  0  0  0  0  0  0  0
  -39.6647   59.2980   59.5520 C   0  0  0  0  0  0  0  0  0  0  0  0
  -40.6001   59.5557   61.7784 C   0  0  0  0  0  0  0  0  0  0  0  0
  -41.1177   57.5725   60.4554 C   0  0  0  0  0  0  0  0  0  0  0  0
 34 33  1  0  0  0
 34 35  1  0  0  0
 34 36  1  0  0  0
 34 37  1  0  0  0
 22 23  1  0  0  0
 22 25  1  0  0  0
 22 21  1  0  0  0
 27 26  1  0  0  0
 27 28  2  0  0  0
 27 31  1  0  0  0
 27 29  1  0  0  0
 25 26  1  0  0  0
 32 33  1  0  0  0
 32 31  1  0  0  0
 20 21  1  0  0  0
 20  2  1  0  0  0
  1  2  2  0  0  0
  2  3  1  0  0  0
  3  4  1  0  0  0
  4  5  1  0  0  0
  5  6  1  0  0  0
  6  7  1  0  0  0
  7  8  1  0  0  0
  8  9  1  0  0  0
  9 10  1  0  0  0
 10 11  2  0  0  0
 11 12  1  0  0  0
 12 13  1  0  0  0
 13 14  1  0  0  0
 14 15  1  0  0  0
 15 16  1  0  0  0
 16 17  1  0  0  0
 17 18  1  0  0  0
 18 19  1  0  0  0
 23 24  1  0  0  0
 29 30  1  0  0  0
M  CHG 1  28  -1
M  END
> <minimizedAffinity>
-8.01243

> <CNNscore>
0.6988880634

> <CNNaffinity>
7.0408287048

> <CNN_VS>
4.9207510948

> <CNNaffinity_variance>
0.2648616731

$$$$



 37 36  0  0  0  0  0  0  0  0999 V2000
  -40.9074   59.1804   62.2652 O   0  0  0  0  0  0  0  0  0  0  0  0
  -40.6746   58.3930   63.1305 C   0  0  0  0  0  0  0  0  0  0  0  0
  -41.4324   57.1240   63.3462 C   0  0  0  0  0  0  0  0  0  0  0  0
  -42.9061   57.3555   63.6222 C   0  0  0  0  0  0  0  0  0  0  0  0
  -43.1479   58.2527   64.8168 C   0  0  0  0  0  0  0  0  0  0  0  0
  -43.9864   57.6298   65.9081 C   0  0  0  0  0  0  0  0  0  0  0  0
  -45.4448   57.4909   65.5531 C   0  0  0  0  0  0  0  0  0  0  0  0
  -46.3487   58.1002   66.5909 C   0  0  0  0  0  0  0  0  0  0  0  0
  -47.4622   58.9510   66.0555 C   0  0  0  0  0  0  0  0  0  0  0  0
  -48.7804   58.3056   66.1385 C   0  0  0  0  0  0  0  0  0  0  0  0
  -49.7259   58.2771   65.2253 C   0  0  0  0  0  0  0  0  0  0  0  0
  -49.6996   58.8697   63.8643 C   0  0  0  0  0  0  0  0  0  0  0  0
  -50.9890   58.7552   63.0770 C   0  0  0  0  0  0  0  0  0  0  0  0
  -50.8234   57.9780   61.8001 C   0  0  0  0  0  0  0  0  0  0  0  0
  -49.6603   58.4121   60.9453 C   0  0  0  0  0  0  0  0  0  0  0  0
  -49.0799   57.2759   60.1324 C   0  0  0  0  0  0  0  0  0  0  0  0
  -48.8910   57.5744   58.6713 C   0  0  0  0  0  0  0  0  0  0  0  0
  -47.5785   58.1771   58.3659 C   0  0  0  0  0  0  0  0  0  0  0  0
  -46.4510   57.3016   58.6795 C   0  0  0  0  0  0  0  0  0  0  0  0
  -39.7045   58.5465   64.0317 O   0  0  0  0  0  0  0  0  0  0  0  0
  -39.4956   59.8717   64.5685 C   0  0  0  0  0  0  0  0  0  0  0  0
  -38.4263   59.7565   65.6304 C   0  0  0  0  0  0  0  0  0  0  0  0
  -38.0430   58.3887   65.7736 O   0  0  0  0  0  0  0  0  0  0  0  0
  -37.6465   58.0757   64.9455 H   0  0  0  0  0  0  0  0  0  0  0  0
  -37.1834   60.5747   65.3768 C   0  0  0  0  0  0  0  0  0  0  0  0
  -37.3215   61.8406   66.0529 O   0  0  0  0  0  0  0  0  0  0  0  0
  -36.0224   62.6786   66.4263 P   0  0  0  0  0  0  0  0  0  0  0  0
  -36.2871   63.3321   67.7240 O   0  0  0  0  0  0  0  0  0  0  0  0
  -34.8724   61.7614   66.3041 O   0  0  0  0  0  0  0  0  0  0  0  0
  -34.9542   61.0511   66.9596 H   0  0  0  0  0  0  0  0  0  0  0  0
  -35.8347   63.8142   65.3344 O   0  0  0  0  0  0  0  0  0  0  0  0
  -35.1406   63.5151   64.1005 C   0  0  0  0  0  0  0  0  0  0  0  0
  -34.4980   64.8115   63.6623 C   0  0  0  0  0  0  0  0  0  0  0  0
  -32.9827   64.8473   63.6813 N   0  0  0  0  0  0  0  0  0  0  0  0
  -32.4809   66.0199   64.4610 C   0  0  0  0  0  0  0  0  0  0  0  0
  -32.4672   64.9484   62.2815 C   0  0  0  0  0  0  0  0  0  0  0  0
  -32.4595   63.5946   64.3110 C   0  0  0  0  0  0  0  0  0  0  0  0
 34 33  1  0  0  0
 34 35  1  0  0  0
 34 36  1  0  0  0
 34 37  1  0  0  0
 22 23  1  0  0  0
 22 25  1  0  0  0
 22 21  1  0  0  0
 27 26  1  0  0  0
 27 28  2  0  0  0
 27 31  1  0  0  0
 27 29  1  0  0  0
 25 26  1  0  0  0
 32 33  1  0  0  0
 32 31  1  0  0  0
 20 21  1  0  0  0
 20  2  1  0  0  0
  1  2  2  0  0  0
  2  3  1  0  0  0
  3  4  1  0  0  0
  4  5  1  0  0  0
  5  6  1  0  0  0
  6  7  1  0  0  0
  7  8  1  0  0  0
  8  9  1  0  0  0
  9 10  1  0  0  0
 10 11  2  0  0  0
 11 12  1  0  0  0
 12 13  1  0  0  0
 13 14  1  0  0  0
 14 15  1  0  0  0
 15 16  1  0  0  0
 16 17  1  0  0  0
 17 18  1  0  0  0
 18 19  1  0  0  0
 23 24  1  0  0  0
 29 30  1  0  0  0
M  CHG 1  28  -1
M  END
> <minimizedAffinity>
-7.55664

> <CNNscore>
0.6799056530

> <CNNaffinity>
6.2694716454

> <CNN_VS>
4.2626490593

> <CNNaffinity_variance>
0.3499755263

$$$$



 37 36  0  0  0  0  0  0  0  0999 V2000
  -41.3746   55.9917   64.3598 O   0  0  0  0  0  0  0  0  0  0  0  0
  -42.0713   56.9538   64.4687 C   0  0  0  0  0  0  0  0  0  0  0  0
  -43.2367   57.0541   65.3977 C   0  0  0  0  0  0  0  0  0  0  0  0
  -44.3211   57.9840   64.8870 C   0  0  0  0  0  0  0  0  0  0  0  0
  -45.7060   57.5825   65.3466 C   0  0  0  0  0  0  0  0  0  0  0  0
  -46.8227   58.4295   64.7832 C   0  0  0  0  0  0  0  0  0  0  0  0
  -47.8531   58.8389   65.8045 C   0  0  0  0  0  0  0  0  0  0  0  0
  -49.0695   57.9527   65.7798 C   0  0  0  0  0  0  0  0  0  0  0  0
  -50.3741   58.6422   66.0494 C   0  0  0  0  0  0  0  0  0  0  0  0
  -50.4747   59.9663   65.4188 C   0  0  0  0  0  0  0  0  0  0  0  0
  -50.8972   60.2554   64.2078 C   0  0  0  0  0  0  0  0  0  0  0  0
  -51.4039   59.3223   63.1700 C   0  0  0  0  0  0  0  0  0  0  0  0
  -50.3435   58.5505   62.4117 C   0  0  0  0  0  0  0  0  0  0  0  0
  -50.9249   57.6316   61.3727 C   0  0  0  0  0  0  0  0  0  0  0  0
  -49.9863   57.2806   60.2467 C   0  0  0  0  0  0  0  0  0  0  0  0
  -48.6546   57.9898   60.3572 C   0  0  0  0  0  0  0  0  0  0  0  0
  -47.5740   57.4513   59.4616 C   0  0  0  0  0  0  0  0  0  0  0  0
  -47.2580   58.3447   58.3297 C   0  0  0  0  0  0  0  0  0  0  0  0
  -46.0460   57.9611   57.6085 C   0  0  0  0  0  0  0  0  0  0  0  0
  -41.9056   58.0732   63.7641 O   0  0  0  0  0  0  0  0  0  0  0  0
  -41.1992   57.9726   62.5075 C   0  0  0  0  0  0  0  0  0  0  0  0
  -40.1009   59.0106   62.5320 C   0  0  0  0  0  0  0  0  0  0  0  0
  -40.0280   59.6567   61.2611 O   0  0  0  0  0  0  0  0  0  0  0  0
  -40.8560   60.1330   61.0926 H   0  0  0  0  0  0  0  0  0  0  0  0
  -40.2472   60.0705   63.5968 C   0  0  0  0  0  0  0  0  0  0  0  0
  -38.9446   60.3505   64.1476 O   0  0  0  0  0  0  0  0  0  0  0  0
  -38.6974   60.1781   65.7092 P   0  0  0  0  0  0  0  0  0  0  0  0
  -40.0247   60.0755   66.3488 O   0  0  0  0  0  0  0  0  0  0  0  0
  -37.7340   59.0713   65.8699 O   0  0  0  0  0  0  0  0  0  0  0  0
  -38.1322   58.2470   65.5494 H   0  0  0  0  0  0  0  0  0  0  0  0
  -37.9939   61.4942   66.2476 O   0  0  0  0  0  0  0  0  0  0  0  0
  -36.5497   61.5622   66.3078 C   0  0  0  0  0  0  0  0  0  0  0  0
  -36.1850   62.9755   65.9139 C   0  0  0  0  0  0  0  0  0  0  0  0
  -35.1917   63.1184   64.7778 N   0  0  0  0  0  0  0  0  0  0  0  0
  -35.4449   62.1035   63.7097 C   0  0  0  0  0  0  0  0  0  0  0  0
  -33.8039   62.9266   65.2997 C   0  0  0  0  0  0  0  0  0  0  0  0
  -35.3094   64.4842   64.1778 C   0  0  0  0  0  0  0  0  0  0  0  0
 34 33  1  0  0  0
 34 35  1  0  0  0
 34 36  1  0  0  0
 34 37  1  0  0  0
 22 23  1  0  0  0
 22 25  1  0  0  0
 22 21  1  0  0  0
 27 26  1  0  0  0
 27 28  2  0  0  0
 27 31  1  0  0  0
 27 29  1  0  0  0
 25 26  1  0  0  0
 32 33  1  0  0  0
 32 31  1  0  0  0
 20 21  1  0  0  0
 20  2  1  0  0  0
  1  2  2  0  0  0
  2  3  1  0  0  0
  3  4  1  0  0  0
  4  5  1  0  0  0
  5  6  1  0  0  0
  6  7  1  0  0  0
  7  8  1  0  0  0
  8  9  1  0  0  0
  9 10  1  0  0  0
 10 11  2  0  0  0
 11 12  1  0  0  0
 12 13  1  0  0  0
 13 14  1  0  0  0
 14 15  1  0  0  0
 15 16  1  0  0  0
 16 17  1  0  0  0
 17 18  1  0  0  0
 18 19  1  0  0  0
 23 24  1  0  0  0
 29 30  1  0  0  0
M  CHG 1  28  -1
M  END
> <minimizedAffinity>
-8.19130

> <CNNscore>
0.6627335548

> <CNNaffinity>
6.5464248657

> <CNN_VS>
4.3385353088

> <CNNaffinity_variance>
0.3712622821

$$$$



 37 36  0  0  0  0  0  0  0  0999 V2000
  -42.1292   59.1768   66.1674 O   0  0  0  0  0  0  0  0  0  0  0  0
  -42.4256   58.1418   65.6536 C   0  0  0  0  0  0  0  0  0  0  0  0
  -43.5096   57.2360   66.1390 C   0  0  0  0  0  0  0  0  0  0  0  0
  -44.8967   57.7170   65.7568 C   0  0  0  0  0  0  0  0  0  0  0  0
  -45.8803   57.6510   66.9051 C   0  0  0  0  0  0  0  0  0  0  0  0
  -47.0224   58.6349   66.8085 C   0  0  0  0  0  0  0  0  0  0  0  0
  -47.3821   59.0157   65.3950 C   0  0  0  0  0  0  0  0  0  0  0  0
  -48.3967   60.1261   65.3402 C   0  0  0  0  0  0  0  0  0  0  0  0
  -49.8043   59.7294   65.6739 C   0  0  0  0  0  0  0  0  0  0  0  0
  -50.3130   58.6301   64.8408 C   0  0  0  0  0  0  0  0  0  0  0  0
  -50.6966   58.6785   63.5841 C   0  0  0  0  0  0  0  0  0  0  0  0
  -50.6945   59.8505   62.6727 C   0  0  0  0  0  0  0  0  0  0  0  0
  -49.8069   59.7265   61.4512 C   0  0  0  0  0  0  0  0  0  0  0  0
  -49.5398   58.2964   61.0696 C   0  0  0  0  0  0  0  0  0  0  0  0
  -49.2276   58.0820   59.6107 C   0  0  0  0  0  0  0  0  0  0  0  0
  -47.7892   57.6754   59.3773 C   0  0  0  0  0  0  0  0  0  0  0  0
  -47.0950   58.4124   58.2661 C   0  0  0  0  0  0  0  0  0  0  0  0
  -46.2791   57.5329   57.4060 C   0  0  0  0  0  0  0  0  0  0  0  0
  -47.0756   56.6229   56.5852 C   0  0  0  0  0  0  0  0  0  0  0  0
  -41.8182   57.6487   64.5744 O   0  0  0  0  0  0  0  0  0  0  0  0
  -41.6575   56.2148   64.4954 C   0  0  0  0  0  0  0  0  0  0  0  0
  -41.0968   55.9063   63.1261 C   0  0  0  0  0  0  0  0  0  0  0  0
  -41.0887   54.4933   62.9224 O   0  0  0  0  0  0  0  0  0  0  0  0
  -41.9997   54.1602   62.9306 H   0  0  0  0  0  0  0  0  0  0  0  0
  -41.8324   56.5486   61.9751 C   0  0  0  0  0  0  0  0  0  0  0  0
  -40.8633   57.1158   61.0706 O   0  0  0  0  0  0  0  0  0  0  0  0
  -40.4002   58.6254   61.2598 P   0  0  0  0  0  0  0  0  0  0  0  0
  -40.2342   59.1997   59.9093 O   0  0  0  0  0  0  0  0  0  0  0  0
  -41.3553   59.2514   62.1952 O   0  0  0  0  0  0  0  0  0  0  0  0
  -42.2375   59.2700   61.7924 H   0  0  0  0  0  0  0  0  0  0  0  0
  -38.9815   58.6231   61.9698 O   0  0  0  0  0  0  0  0  0  0  0  0
  -37.8109   58.2002   61.2318 C   0  0  0  0  0  0  0  0  0  0  0  0
  -37.0508   57.2757   62.1556 C   0  0  0  0  0  0  0  0  0  0  0  0
  -35.8027   57.8486   62.7972 N   0  0  0  0  0  0  0  0  0  0  0  0
  -35.8085   59.3427   62.7479 C   0  0  0  0  0  0  0  0  0  0  0  0
  -34.5938   57.3514   62.0715 C   0  0  0  0  0  0  0  0  0  0  0  0
  -35.7317   57.4173   64.2284 C   0  0  0  0  0  0  0  0  0  0  0  0
 34 33  1  0  0  0
 34 35  1  0  0  0
 34 36  1  0  0  0
 34 37  1  0  0  0
 22 23  1  0  0  0
 22 25  1  0  0  0
 22 21  1  0  0  0
 27 26  1  0  0  0
 27 28  2  0  0  0
 27 31  1  0  0  0
 27 29  1  0  0  0
 25 26  1  0  0  0
 32 33  1  0  0  0
 32 31  1  0  0  0
 20 21  1  0  0  0
 20  2  1  0  0  0
  1  2  2  0  0  0
  2  3  1  0  0  0
  3  4  1  0  0  0
  4  5  1  0  0  0
  5  6  1  0  0  0
  6  7  1  0  0  0
  7  8  1  0  0  0
  8  9  1  0  0  0
  9 10  1  0  0  0
 10 11  2  0  0  0
 11 12  1  0  0  0
 12 13  1  0  0  0
 13 14  1  0  0  0
 14 15  1  0  0  0
 15 16  1  0  0  0
 16 17  1  0  0  0
 17 18  1  0  0  0
 18 19  1  0  0  0
 23 24  1  0  0  0
 29 30  1  0  0  0
M  CHG 1  28  -1
M  END
> <minimizedAffinity>
-8.19040

> <CNNscore>
0.6580749750

> <CNNaffinity>
6.9835367203

> <CNN_VS>
4.5956907272

> <CNNaffinity_variance>
0.6125133038

$$$$



 37 36  0  0  0  0  0  0  0  0999 V2000
  -42.0392   59.6955   66.7576 O   0  0  0  0  0  0  0  0  0  0  0  0
  -42.0552   58.6107   66.2617 C   0  0  0  0  0  0  0  0  0  0  0  0
  -43.1345   57.5998   66.4723 C   0  0  0  0  0  0  0  0  0  0  0  0
  -44.3415   57.8301   65.5827 C   0  0  0  0  0  0  0  0  0  0  0  0
  -45.6353   57.9362   66.3607 C   0  0  0  0  0  0  0  0  0  0  0  0
  -46.7637   58.6046   65.6112 C   0  0  0  0  0  0  0  0  0  0  0  0
  -48.0364   58.7301   66.4091 C   0  0  0  0  0  0  0  0  0  0  0  0
  -49.1299   57.8357   65.8900 C   0  0  0  0  0  0  0  0  0  0  0  0
  -50.5118   58.4178   65.9308 C   0  0  0  0  0  0  0  0  0  0  0  0
  -50.5465   59.8579   65.6371 C   0  0  0  0  0  0  0  0  0  0  0  0
  -50.9811   60.4507   64.5470 C   0  0  0  0  0  0  0  0  0  0  0  0
  -51.5709   59.8219   63.3382 C   0  0  0  0  0  0  0  0  0  0  0  0
  -50.5759   59.3033   62.3202 C   0  0  0  0  0  0  0  0  0  0  0  0
  -50.8601   57.8880   61.8983 C   0  0  0  0  0  0  0  0  0  0  0  0
  -50.2180   57.4778   60.5978 C   0  0  0  0  0  0  0  0  0  0  0  0
  -49.0323   58.3447   60.2357 C   0  0  0  0  0  0  0  0  0  0  0  0
  -47.8285   57.5950   59.7369 C   0  0  0  0  0  0  0  0  0  0  0  0
  -47.3244   58.0989   58.4441 C   0  0  0  0  0  0  0  0  0  0  0  0
  -47.8243   57.3481   57.2940 C   0  0  0  0  0  0  0  0  0  0  0  0
  -41.1002   58.1504   65.4536 O   0  0  0  0  0  0  0  0  0  0  0  0
  -39.8339   58.8463   65.4525 C   0  0  0  0  0  0  0  0  0  0  0  0
  -40.0390   60.1390   64.6966 C   0  0  0  0  0  0  0  0  0  0  0  0
  -39.5906   61.2339   65.4955 O   0  0  0  0  0  0  0  0  0  0  0  0
  -38.6367   61.1517   65.6506 H   0  0  0  0  0  0  0  0  0  0  0  0
  -39.3468   60.2126   63.3573 C   0  0  0  0  0  0  0  0  0  0  0  0
  -38.1326   59.4381   63.4251 O   0  0  0  0  0  0  0  0  0  0  0  0
  -36.9490   59.7403   62.4067 P   0  0  0  0  0  0  0  0  0  0  0  0
  -36.0703   58.5533   62.3997 O   0  0  0  0  0  0  0  0  0  0  0  0
  -37.5737   60.1804   61.1438 O   0  0  0  0  0  0  0  0  0  0  0  0
  -38.0952   59.4527   60.7703 H   0  0  0  0  0  0  0  0  0  0  0  0
  -36.1131   60.9662   62.9685 O   0  0  0  0  0  0  0  0  0  0  0  0
  -35.8452   61.0616   64.3873 C   0  0  0  0  0  0  0  0  0  0  0  0
  -34.4922   61.7249   64.5094 C   0  0  0  0  0  0  0  0  0  0  0  0
  -34.4124   62.9154   65.4443 N   0  0  0  0  0  0  0  0  0  0  0  0
  -33.1557   63.6934   65.2202 C   0  0  0  0  0  0  0  0  0  0  0  0
  -34.4339   62.4405   66.8618 C   0  0  0  0  0  0  0  0  0  0  0  0
  -35.5825   63.8178   65.2079 C   0  0  0  0  0  0  0  0  0  0  0  0
 34 33  1  0  0  0
 34 35  1  0  0  0
 34 36  1  0  0  0
 34 37  1  0  0  0
 22 23  1  0  0  0
 22 25  1  0  0  0
 22 21  1  0  0  0
 27 26  1  0  0  0
 27 28  2  0  0  0
 27 31  1  0  0  0
 27 29  1  0  0  0
 25 26  1  0  0  0
 32 33  1  0  0  0
 32 31  1  0  0  0
 20 21  1  0  0  0
 20  2  1  0  0  0
  1  2  2  0  0  0
  2  3  1  0  0  0
  3  4  1  0  0  0
  4  5  1  0  0  0
  5  6  1  0  0  0
  6  7  1  0  0  0
  7  8  1  0  0  0
  8  9  1  0  0  0
  9 10  1  0  0  0
 10 11  2  0  0  0
 11 12  1  0  0  0
 12 13  1  0  0  0
 13 14  1  0  0  0
 14 15  1  0  0  0
 15 16  1  0  0  0
 16 17  1  0  0  0
 17 18  1  0  0  0
 18 19  1  0  0  0
 23 24  1  0  0  0
 29 30  1  0  0  0
M  CHG 1  28  -1
M  END
> <minimizedAffinity>
-8.22669

> <CNNscore>
0.6452633739

> <CNNaffinity>
6.3225488663

> <CNN_VS>
4.0797090530

> <CNNaffinity_variance>
0.2295460999

$$$$



 37 36  0  0  0  0  0  0  0  0999 V2000
  -42.2085   55.9853   65.0362 O   0  0  0  0  0  0  0  0  0  0  0  0
  -42.9101   56.8506   64.6097 C   0  0  0  0  0  0  0  0  0  0  0  0
  -43.8794   57.6361   65.4311 C   0  0  0  0  0  0  0  0  0  0  0  0
  -45.2040   57.8616   64.7268 C   0  0  0  0  0  0  0  0  0  0  0  0
  -46.3583   58.0467   65.6879 C   0  0  0  0  0  0  0  0  0  0  0  0
  -47.6668   58.4183   65.0308 C   0  0  0  0  0  0  0  0  0  0  0  0
  -48.8307   57.5630   65.4619 C   0  0  0  0  0  0  0  0  0  0  0  0
  -49.9907   58.3818   65.9614 C   0  0  0  0  0  0  0  0  0  0  0  0
  -49.9920   59.8212   65.5393 C   0  0  0  0  0  0  0  0  0  0  0  0
  -51.2267   60.2258   64.8516 C   0  0  0  0  0  0  0  0  0  0  0  0
  -51.5142   60.1145   63.5735 C   0  0  0  0  0  0  0  0  0  0  0  0
  -50.6761   59.5306   62.4960 C   0  0  0  0  0  0  0  0  0  0  0  0
  -50.8653   58.0473   62.2527 C   0  0  0  0  0  0  0  0  0  0  0  0
  -50.6057   57.6548   60.8241 C   0  0  0  0  0  0  0  0  0  0  0  0
  -49.5306   58.4567   60.1364 C   0  0  0  0  0  0  0  0  0  0  0  0
  -48.1886   57.7586   60.1457 C   0  0  0  0  0  0  0  0  0  0  0  0
  -47.8897   56.9443   58.9179 C   0  0  0  0  0  0  0  0  0  0  0  0
  -47.3533   57.7492   57.8027 C   0  0  0  0  0  0  0  0  0  0  0  0
  -47.5715   57.1419   56.4914 C   0  0  0  0  0  0  0  0  0  0  0  0
  -42.9280   57.2287   63.3316 O   0  0  0  0  0  0  0  0  0  0  0  0
  -41.8163   58.0183   62.8534 C   0  0  0  0  0  0  0  0  0  0  0  0
  -41.0778   57.1756   61.8390 C   0  0  0  0  0  0  0  0  0  0  0  0
  -41.1118   57.8231   60.5671 O   0  0  0  0  0  0  0  0  0  0  0  0
  -40.6394   58.6685   60.6220 H   0  0  0  0  0  0  0  0  0  0  0  0
  -39.6385   56.8775   62.1828 C   0  0  0  0  0  0  0  0  0  0  0  0
  -39.3150   57.5430   63.4202 O   0  0  0  0  0  0  0  0  0  0  0  0
  -38.1603   58.6363   63.4467 P   0  0  0  0  0  0  0  0  0  0  0  0
  -36.8997   57.9275   63.7456 O   0  0  0  0  0  0  0  0  0  0  0  0
  -38.2724   59.4068   62.1926 O   0  0  0  0  0  0  0  0  0  0  0  0
  -38.0979   58.8230   61.4378 H   0  0  0  0  0  0  0  0  0  0  0  0
  -38.4546   59.6387   64.6407 O   0  0  0  0  0  0  0  0  0  0  0  0
  -37.5324   59.7200   65.7528 C   0  0  0  0  0  0  0  0  0  0  0  0
  -37.0568   61.1545   65.7922 C   0  0  0  0  0  0  0  0  0  0  0  0
  -35.6657   61.4135   65.2488 N   0  0  0  0  0  0  0  0  0  0  0  0
  -34.8233   60.1802   65.3142 C   0  0  0  0  0  0  0  0  0  0  0  0
  -35.0057   62.4861   66.0545 C   0  0  0  0  0  0  0  0  0  0  0  0
  -35.7589   61.8543   63.8218 C   0  0  0  0  0  0  0  0  0  0  0  0
 34 33  1  0  0  0
 34 35  1  0  0  0
 34 36  1  0  0  0
 34 37  1  0  0  0
 22 23  1  0  0  0
 22 25  1  0  0  0
 22 21  1  0  0  0
 27 26  1  0  0  0
 27 28  2  0  0  0
 27 31  1  0  0  0
 27 29  1  0  0  0
 25 26  1  0  0  0
 32 33  1  0  0  0
 32 31  1  0  0  0
 20 21  1  0  0  0
 20  2  1  0  0  0
  1  2  2  0  0  0
  2  3  1  0  0  0
  3  4  1  0  0  0
  4  5  1  0  0  0
  5  6  1  0  0  0
  6  7  1  0  0  0
  7  8  1  0  0  0
  8  9  1  0  0  0
  9 10  1  0  0  0
 10 11  2  0  0  0
 11 12  1  0  0  0
 12 13  1  0  0  0
 13 14  1  0  0  0
 14 15  1  0  0  0
 15 16  1  0  0  0
 16 17  1  0  0  0
 17 18  1  0  0  0
 18 19  1  0  0  0
 23 24  1  0  0  0
 29 30  1  0  0  0
M  CHG 1  28  -1
M  END
> <minimizedAffinity>
-7.93734

> <CNNscore>
0.6395974755

> <CNNaffinity>
6.5540208817

> <CNN_VS>
4.1919350624

> <CNNaffinity_variance>
0.3491479158

$$$$



 37 36  0  0  0  0  0  0  0  0999 V2000
  -42.0708   59.4140   67.3015 O   0  0  0  0  0  0  0  0  0  0  0  0
  -42.1261   58.7130   66.3378 C   0  0  0  0  0  0  0  0  0  0  0  0
  -43.0537   57.5518   66.1881 C   0  0  0  0  0  0  0  0  0  0  0  0
  -44.5126   57.9370   66.3449 C   0  0  0  0  0  0  0  0  0  0  0  0
  -45.2787   57.8869   65.0407 C   0  0  0  0  0  0  0  0  0  0  0  0
  -46.7797   57.9610   65.1930 C   0  0  0  0  0  0  0  0  0  0  0  0
  -47.3815   59.2478   64.6887 C   0  0  0  0  0  0  0  0  0  0  0  0
  -48.4211   59.8013   65.6258 C   0  0  0  0  0  0  0  0  0  0  0  0
  -49.2770   60.8973   65.0633 C   0  0  0  0  0  0  0  0  0  0  0  0
  -50.7129   60.5824   65.0804 C   0  0  0  0  0  0  0  0  0  0  0  0
  -51.4466   60.0995   64.1021 C   0  0  0  0  0  0  0  0  0  0  0  0
  -51.0116   59.7252   62.7327 C   0  0  0  0  0  0  0  0  0  0  0  0
  -50.8658   58.2390   62.4771 C   0  0  0  0  0  0  0  0  0  0  0  0
  -49.5154   57.8739   61.9247 C   0  0  0  0  0  0  0  0  0  0  0  0
  -49.5201   57.4537   60.4772 C   0  0  0  0  0  0  0  0  0  0  0  0
  -48.6113   58.3076   59.6207 C   0  0  0  0  0  0  0  0  0  0  0  0
  -47.3612   57.6218   59.1446 C   0  0  0  0  0  0  0  0  0  0  0  0
  -46.8908   58.1141   57.8349 C   0  0  0  0  0  0  0  0  0  0  0  0
  -46.9670   57.1096   56.7759 C   0  0  0  0  0  0  0  0  0  0  0  0
  -41.3555   58.8696   65.2615 O   0  0  0  0  0  0  0  0  0  0  0  0
  -39.9247   58.8939   65.4626 C   0  0  0  0  0  0  0  0  0  0  0  0
  -39.4322   60.2395   64.9819 C   0  0  0  0  0  0  0  0  0  0  0  0
  -39.8327   61.2510   65.9063 O   0  0  0  0  0  0  0  0  0  0  0  0
  -39.4092   61.0910   66.7642 H   0  0  0  0  0  0  0  0  0  0  0  0
  -37.9391   60.3399   64.7843 C   0  0  0  0  0  0  0  0  0  0  0  0
  -37.4819   59.1420   64.1248 O   0  0  0  0  0  0  0  0  0  0  0  0
  -35.9547   59.0118   63.7007 P   0  0  0  0  0  0  0  0  0  0  0  0
  -35.5727   60.2871   63.0614 O   0  0  0  0  0  0  0  0  0  0  0  0
  -35.2167   58.5566   64.8954 O   0  0  0  0  0  0  0  0  0  0  0  0
  -35.2663   59.2371   65.5848 H   0  0  0  0  0  0  0  0  0  0  0  0
  -35.8391   57.8634   62.6122 O   0  0  0  0  0  0  0  0  0  0  0  0
  -34.7808   57.9132   61.6267 C   0  0  0  0  0  0  0  0  0  0  0  0
  -33.6896   57.0040   62.1448 C   0  0  0  0  0  0  0  0  0  0  0  0
  -32.2689   57.5113   61.9957 N   0  0  0  0  0  0  0  0  0  0  0  0
  -31.8641   58.3350   63.1757 C   0  0  0  0  0  0  0  0  0  0  0  0
  -32.1656   58.3552   60.7659 C   0  0  0  0  0  0  0  0  0  0  0  0
  -31.3319   56.3505   61.8783 C   0  0  0  0  0  0  0  0  0  0  0  0
 34 33  1  0  0  0
 34 35  1  0  0  0
 34 36  1  0  0  0
 34 37  1  0  0  0
 22 23  1  0  0  0
 22 25  1  0  0  0
 22 21  1  0  0  0
 27 26  1  0  0  0
 27 28  2  0  0  0
 27 31  1  0  0  0
 27 29  1  0  0  0
 25 26  1  0  0  0
 32 33  1  0  0  0
 32 31  1  0  0  0
 20 21  1  0  0  0
 20  2  1  0  0  0
  1  2  2  0  0  0
  2  3  1  0  0  0
  3  4  1  0  0  0
  4  5  1  0  0  0
  5  6  1  0  0  0
  6  7  1  0  0  0
  7  8  1  0  0  0
  8  9  1  0  0  0
  9 10  1  0  0  0
 10 11  2  0  0  0
 11 12  1  0  0  0
 12 13  1  0  0  0
 13 14  1  0  0  0
 14 15  1  0  0  0
 15 16  1  0  0  0
 16 17  1  0  0  0
 17 18  1  0  0  0
 18 19  1  0  0  0
 23 24  1  0  0  0
 29 30  1  0  0  0
M  CHG 1  28  -1
M  END
> <minimizedAffinity>
-8.11809

> <CNNscore>
0.6302990317

> <CNNaffinity>
6.1939530373

> <CNN_VS>
3.9040427208

> <CNNaffinity_variance>
0.2058062106

$$$$
