


 37 36  0  0  0  0  0  0  0  0999 V2000
  -45.7937   60.0071   65.0017 O   0  0  0  0  0  0  0  0  0  0  0  0
  -46.3729   59.5680   64.0558 C   0  0  0  0  0  0  0  0  0  0  0  0
  -47.1737   58.3071   64.0642 C   0  0  0  0  0  0  0  0  0  0  0  0
  -47.7174   57.9617   65.4377 C   0  0  0  0  0  0  0  0  0  0  0  0
  -49.2266   57.8516   65.4634 C   0  0  0  0  0  0  0  0  0  0  0  0
  -49.9349   59.0774   65.9902 C   0  0  0  0  0  0  0  0  0  0  0  0
  -50.0063   60.2132   65.0017 C   0  0  0  0  0  0  0  0  0  0  0  0
  -51.4000   60.4303   64.4764 C   0  0  0  0  0  0  0  0  0  0  0  0
  -51.5813   60.1794   63.0087 C   0  0  0  0  0  0  0  0  0  0  0  0
  -50.6602   59.1670   62.4723 C   0  0  0  0  0  0  0  0  0  0  0  0
  -49.7584   59.3140   61.5269 C   0  0  0  0  0  0  0  0  0  0  0  0
  -49.4198   60.5462   60.7709 C   0  0  0  0  0  0  0  0  0  0  0  0
  -48.2360   60.4322   59.8324 C   0  0  0  0  0  0  0  0  0  0  0  0
  -47.8517   59.0053   59.5521 C   0  0  0  0  0  0  0  0  0  0  0  0
  -46.3909   58.6952   59.7558 C   0  0  0  0  0  0  0  0  0  0  0  0
  -45.8657   57.6867   58.7579 C   0  0  0  0  0  0  0  0  0  0  0  0
  -46.2600   57.9441   57.3302 C   0  0  0  0  0  0  0  0  0  0  0  0
  -46.9589   56.8037   56.7055 C   0  0  0  0  0  0  0  0  0  0  0  0
  -48.3441   57.0991   56.3448 C   0  0  0  0  0  0  0  0  0  0  0  0
  -46.3755   60.1450   62.8542 O   0  0  0  0  0  0  0  0  0  0  0  0
  -46.2443   61.5831   62.8038 C   0  0  0  0  0  0  0  0  0  0  0  0
  -44.9800   61.8863   62.0330 C   0  0  0  0  0  0  0  0  0  0  0  0
  -45.1401   63.1122   61.3191 O   0  0  0  0  0  0  0  0  0  0  0  0
  -45.2620   63.8396   61.9491 H   0  0  0  0  0  0  0  0  0  0  0  0
  -43.7286   61.9840   62.8715 C   0  0  0  0  0  0  0  0  0  0  0  0
  -42.9147   60.8210   62.6185 O   0  0  0  0  0  0  0  0  0  0  0  0
  -42.1170   60.1438   63.8162 P   0  0  0  0  0  0  0  0  0  0  0  0
  -41.8291   61.2067   64.8003 O   0  0  0  0  0  0  0  0  0  0  0  0
  -42.8993   58.9653   64.2384 O   0  0  0  0  0  0  0  0  0  0  0  0
  -43.7554   59.2549   64.5909 H   0  0  0  0  0  0  0  0  0  0  0  0
  -40.7338   59.6106   63.2511 O   0  0  0  0  0  0  0  0  0  0  0  0
  -40.5200   59.5464   61.8214 C   0  0  0  0  0  0  0  0  0  0  0  0
  -39.5827   58.3820   61.5949 C   0  0  0  0  0  0  0  0  0  0  0  0
  -38.1646   58.7332   61.1905 N   0  0  0  0  0  0  0  0  0  0  0  0
  -38.0997   59.1440   59.7546 C   0  0  0  0  0  0  0  0  0  0  0  0
  -37.2793   57.5447   61.3880 C   0  0  0  0  0  0  0  0  0  0  0  0
  -37.6682   59.8646   62.0349 C   0  0  0  0  0  0  0  0  0  0  0  0
 34 33  1  0  0  0
 34 35  1  0  0  0
 34 36  1  0  0  0
 34 37  1  0  0  0
 22 23  1  0  0  0
 22 25  1  0  0  0
 22 21  1  0  0  0
 27 26  1  0  0  0
 27 28  2  0  0  0
 27 31  1  0  0  0
 27 29  1  0  0  0
 25 26  1  0  0  0
 32 33  1  0  0  0
 32 31  1  0  0  0
 20 21  1  0  0  0
 20  2  1  0  0  0
  1  2  2  0  0  0
  2  3  1  0  0  0
  3  4  1  0  0  0
  4  5  1  0  0  0
  5  6  1  0  0  0
  6  7  1  0  0  0
  7  8  1  0  0  0
  8  9  1  0  0  0
  9 10  1  0  0  0
 10 11  2  0  0  0
 11 12  1  0  0  0
 12 13  1  0  0  0
 13 14  1  0  0  0
 14 15  1  0  0  0
 15 16  1  0  0  0
 16 17  1  0  0  0
 17 18  1  0  0  0
 18 19  1  0  0  0
 23 24  1  0  0  0
 29 30  1  0  0  0
M  CHG 1  28  -1
M  END
> <minimizedAffinity>
-7.57827

> <CNNscore>
0.4252679050

> <CNNaffinity>
6.3224363327

> <CNN_VS>
2.6887292862

> <CNNaffinity_variance>
0.7390066385

$$$$



 37 36  0  0  0  0  0  0  0  0999 V2000
  -45.3706   59.8376   65.5508 O   0  0  0  0  0  0  0  0  0  0  0  0
  -46.0444   58.8687   65.3771 C   0  0  0  0  0  0  0  0  0  0  0  0
  -47.2675   58.5357   66.1672 C   0  0  0  0  0  0  0  0  0  0  0  0
  -48.4378   58.1182   65.2967 C   0  0  0  0  0  0  0  0  0  0  0  0
  -49.7422   58.0415   66.0603 C   0  0  0  0  0  0  0  0  0  0  0  0
  -50.5760   59.2998   66.0033 C   0  0  0  0  0  0  0  0  0  0  0  0
  -50.2730   60.1796   64.8173 C   0  0  0  0  0  0  0  0  0  0  0  0
  -51.4026   60.2118   63.8231 C   0  0  0  0  0  0  0  0  0  0  0  0
  -51.0564   59.7460   62.4398 C   0  0  0  0  0  0  0  0  0  0  0  0
  -49.6102   59.7256   62.1766 C   0  0  0  0  0  0  0  0  0  0  0  0
  -49.0005   59.5792   61.0209 C   0  0  0  0  0  0  0  0  0  0  0  0
  -49.6138   59.4194   59.6782 C   0  0  0  0  0  0  0  0  0  0  0  0
  -49.7330   57.9936   59.1802 C   0  0  0  0  0  0  0  0  0  0  0  0
  -48.8792   57.0320   59.9603 C   0  0  0  0  0  0  0  0  0  0  0  0
  -48.6523   55.7027   59.2871 C   0  0  0  0  0  0  0  0  0  0  0  0
  -47.2876   55.6029   58.6419 C   0  0  0  0  0  0  0  0  0  0  0  0
  -47.2982   55.5751   57.1389 C   0  0  0  0  0  0  0  0  0  0  0  0
  -47.2210   56.9185   56.5320 C   0  0  0  0  0  0  0  0  0  0  0  0
  -46.2757   57.8063   57.2061 C   0  0  0  0  0  0  0  0  0  0  0  0
  -45.7883   57.9431   64.4526 O   0  0  0  0  0  0  0  0  0  0  0  0
  -44.4046   57.7070   64.1096 C   0  0  0  0  0  0  0  0  0  0  0  0
  -43.7995   56.9025   65.2369 C   0  0  0  0  0  0  0  0  0  0  0  0
  -43.2309   55.7022   64.7133 O   0  0  0  0  0  0  0  0  0  0  0  0
  -42.5044   55.9249   64.1103 H   0  0  0  0  0  0  0  0  0  0  0  0
  -42.7403   57.6207   66.0375 C   0  0  0  0  0  0  0  0  0  0  0  0
  -42.0224   58.5081   65.1566 O   0  0  0  0  0  0  0  0  0  0  0  0
  -41.8463   60.0379   65.5540 P   0  0  0  0  0  0  0  0  0  0  0  0
  -42.2505   60.8391   64.3811 O   0  0  0  0  0  0  0  0  0  0  0  0
  -42.5537   60.2309   66.8352 O   0  0  0  0  0  0  0  0  0  0  0  0
  -43.5024   60.0747   66.7075 H   0  0  0  0  0  0  0  0  0  0  0  0
  -40.3060   60.3055   65.8238 O   0  0  0  0  0  0  0  0  0  0  0  0
  -39.3124   59.4371   65.2301 C   0  0  0  0  0  0  0  0  0  0  0  0
  -38.7478   60.1985   64.0523 C   0  0  0  0  0  0  0  0  0  0  0  0
  -38.8247   59.5037   62.7073 N   0  0  0  0  0  0  0  0  0  0  0  0
  -37.4705   59.3804   62.0862 C   0  0  0  0  0  0  0  0  0  0  0  0
  -39.7024   60.2903   61.7874 C   0  0  0  0  0  0  0  0  0  0  0  0
  -39.3971   58.1323   62.8835 C   0  0  0  0  0  0  0  0  0  0  0  0
 34 33  1  0  0  0
 34 35  1  0  0  0
 34 36  1  0  0  0
 34 37  1  0  0  0
 22 23  1  0  0  0
 22 25  1  0  0  0
 22 21  1  0  0  0
 27 26  1  0  0  0
 27 28  2  0  0  0
 27 31  1  0  0  0
 27 29  1  0  0  0
 25 26  1  0  0  0
 32 33  1  0  0  0
 32 31  1  0  0  0
 20 21  1  0  0  0
 20  2  1  0  0  0
  1  2  2  0  0  0
  2  3  1  0  0  0
  3  4  1  0  0  0
  4  5  1  0  0  0
  5  6  1  0  0  0
  6  7  1  0  0  0
  7  8  1  0  0  0
  8  9  1  0  0  0
  9 10  1  0  0  0
 10 11  2  0  0  0
 11 12  1  0  0  0
 12 13  1  0  0  0
 13 14  1  0  0  0
 14 15  1  0  0  0
 15 16  1  0  0  0
 16 17  1  0  0  0
 17 18  1  0  0  0
 18 19  1  0  0  0
 23 24  1  0  0  0
 29 30  1  0  0  0
M  CHG 1  28  -1
M  END
> <minimizedAffinity>
-7.28868

> <CNNscore>
0.4232767522

> <CNNaffinity>
6.3346362114

> <CNN_VS>
2.6813042164

> <CNNaffinity_variance>
0.3598257005

$$$$



 37 36  0  0  0  0  0  0  0  0999 V2000
  -44.6519   62.5990   61.3654 O   0  0  0  0  0  0  0  0  0  0  0  0
  -44.8755   61.5316   61.8488 C   0  0  0  0  0  0  0  0  0  0  0  0
  -46.2160   60.8728   61.8626 C   0  0  0  0  0  0  0  0  0  0  0  0
  -46.1419   59.3774   61.6182 C   0  0  0  0  0  0  0  0  0  0  0  0
  -45.9963   59.0263   60.1533 C   0  0  0  0  0  0  0  0  0  0  0  0
  -47.0113   59.6836   59.2480 C   0  0  0  0  0  0  0  0  0  0  0  0
  -46.9308   59.2326   57.8119 C   0  0  0  0  0  0  0  0  0  0  0  0
  -46.2526   57.8968   57.6669 C   0  0  0  0  0  0  0  0  0  0  0  0
  -47.1668   56.7344   57.4153 C   0  0  0  0  0  0  0  0  0  0  0  0
  -47.4761   55.9630   58.6279 C   0  0  0  0  0  0  0  0  0  0  0  0
  -48.4874   56.1236   59.4525 C   0  0  0  0  0  0  0  0  0  0  0  0
  -49.5926   57.1108   59.3614 C   0  0  0  0  0  0  0  0  0  0  0  0
  -50.5034   57.1850   60.5699 C   0  0  0  0  0  0  0  0  0  0  0  0
  -49.8954   57.9554   61.7096 C   0  0  0  0  0  0  0  0  0  0  0  0
  -50.7579   59.0679   62.2484 C   0  0  0  0  0  0  0  0  0  0  0  0
  -50.3656   59.4812   63.6498 C   0  0  0  0  0  0  0  0  0  0  0  0
  -49.9369   58.3531   64.5462 C   0  0  0  0  0  0  0  0  0  0  0  0
  -50.0102   58.6908   65.9814 C   0  0  0  0  0  0  0  0  0  0  0  0
  -49.1667   59.8247   66.3544 C   0  0  0  0  0  0  0  0  0  0  0  0
  -43.9527   60.7831   62.4530 O   0  0  0  0  0  0  0  0  0  0  0  0
  -42.5747   61.2035   62.3421 C   0  0  0  0  0  0  0  0  0  0  0  0
  -41.7285   59.9512   62.3318 C   0  0  0  0  0  0  0  0  0  0  0  0
  -40.5997   60.1465   61.4798 O   0  0  0  0  0  0  0  0  0  0  0  0
  -40.0425   60.8548   61.8386 H   0  0  0  0  0  0  0  0  0  0  0  0
  -41.2312   59.5051   63.6854 C   0  0  0  0  0  0  0  0  0  0  0  0
  -40.2713   60.4695   64.1623 O   0  0  0  0  0  0  0  0  0  0  0  0
  -38.7956   59.9982   64.5224 P   0  0  0  0  0  0  0  0  0  0  0  0
  -38.9162   58.7285   65.2670 O   0  0  0  0  0  0  0  0  0  0  0  0
  -38.0200   60.0249   63.2667 O   0  0  0  0  0  0  0  0  0  0  0  0
  -38.3859   59.3747   62.6468 H   0  0  0  0  0  0  0  0  0  0  0  0
  -38.1541   61.0770   65.4928 O   0  0  0  0  0  0  0  0  0  0  0  0
  -36.7147   61.1923   65.5859 C   0  0  0  0  0  0  0  0  0  0  0  0
  -36.3793   62.5865   65.1071 C   0  0  0  0  0  0  0  0  0  0  0  0
  -35.4138   62.6799   63.9423 N   0  0  0  0  0  0  0  0  0  0  0  0
  -36.1398   62.9274   62.6591 C   0  0  0  0  0  0  0  0  0  0  0  0
  -34.6514   61.3996   63.8206 C   0  0  0  0  0  0  0  0  0  0  0  0
  -34.4553   63.8054   64.1746 C   0  0  0  0  0  0  0  0  0  0  0  0
 34 33  1  0  0  0
 34 35  1  0  0  0
 34 36  1  0  0  0
 34 37  1  0  0  0
 22 23  1  0  0  0
 22 25  1  0  0  0
 22 21  1  0  0  0
 27 26  1  0  0  0
 27 28  2  0  0  0
 27 31  1  0  0  0
 27 29  1  0  0  0
 25 26  1  0  0  0
 32 33  1  0  0  0
 32 31  1  0  0  0
 20 21  1  0  0  0
 20  2  1  0  0  0
  1  2  2  0  0  0
  2  3  1  0  0  0
  3  4  1  0  0  0
  4  5  1  0  0  0
  5  6  1  0  0  0
  6  7  1  0  0  0
  7  8  1  0  0  0
  8  9  1  0  0  0
  9 10  1  0  0  0
 10 11  2  0  0  0
 11 12  1  0  0  0
 12 13  1  0  0  0
 13 14  1  0  0  0
 14 15  1  0  0  0
 15 16  1  0  0  0
 16 17  1  0  0  0
 17 18  1  0  0  0
 18 19  1  0  0  0
 23 24  1  0  0  0
 29 30  1  0  0  0
M  CHG 1  28  -1
M  END
> <minimizedAffinity>
-7.25713

> <CNNscore>
0.4222605526

> <CNNaffinity>
6.1119508743

> <CNN_VS>
2.5808358192

> <CNNaffinity_variance>
0.2014285624

$$$$



 37 36  0  0  0  0  0  0  0  0999 V2000
  -44.6343   62.6652   61.3961 O   0  0  0  0  0  0  0  0  0  0  0  0
  -44.8476   61.5589   61.7880 C   0  0  0  0  0  0  0  0  0  0  0  0
  -46.1857   60.8955   61.7627 C   0  0  0  0  0  0  0  0  0  0  0  0
  -46.1003   59.4026   61.5070 C   0  0  0  0  0  0  0  0  0  0  0  0
  -45.9420   59.0641   60.0404 C   0  0  0  0  0  0  0  0  0  0  0  0
  -46.9937   59.6698   59.1410 C   0  0  0  0  0  0  0  0  0  0  0  0
  -46.9428   59.1699   57.7198 C   0  0  0  0  0  0  0  0  0  0  0  0
  -46.2663   57.8301   57.6065 C   0  0  0  0  0  0  0  0  0  0  0  0
  -47.1850   56.6580   57.4265 C   0  0  0  0  0  0  0  0  0  0  0  0
  -47.4613   55.9367   58.6773 C   0  0  0  0  0  0  0  0  0  0  0  0
  -48.4615   56.1175   59.5112 C   0  0  0  0  0  0  0  0  0  0  0  0
  -49.5847   57.0817   59.3953 C   0  0  0  0  0  0  0  0  0  0  0  0
  -50.5225   57.1378   60.5839 C   0  0  0  0  0  0  0  0  0  0  0  0
  -49.9652   57.9416   61.7265 C   0  0  0  0  0  0  0  0  0  0  0  0
  -50.8692   59.0410   62.2226 C   0  0  0  0  0  0  0  0  0  0  0  0
  -50.5147   59.4992   63.6201 C   0  0  0  0  0  0  0  0  0  0  0  0
  -50.1303   58.3986   64.5691 C   0  0  0  0  0  0  0  0  0  0  0  0
  -50.2198   58.7965   65.9878 C   0  0  0  0  0  0  0  0  0  0  0  0
  -49.3790   59.9441   66.3227 C   0  0  0  0  0  0  0  0  0  0  0  0
  -43.9141   60.7647   62.3121 O   0  0  0  0  0  0  0  0  0  0  0  0
  -42.5808   61.3038   62.4520 C   0  0  0  0  0  0  0  0  0  0  0  0
  -41.6172   60.2187   62.0294 C   0  0  0  0  0  0  0  0  0  0  0  0
  -40.5894   60.7849   61.2164 O   0  0  0  0  0  0  0  0  0  0  0  0
  -40.0777   61.4220   61.7392 H   0  0  0  0  0  0  0  0  0  0  0  0
  -40.9657   59.4657   63.1639 C   0  0  0  0  0  0  0  0  0  0  0  0
  -41.9004   58.4872   63.6618 O   0  0  0  0  0  0  0  0  0  0  0  0
  -42.4204   58.5880   65.1613 P   0  0  0  0  0  0  0  0  0  0  0  0
  -41.2690   58.9940   65.9924 O   0  0  0  0  0  0  0  0  0  0  0  0
  -43.6268   59.4383   65.1391 O   0  0  0  0  0  0  0  0  0  0  0  0
  -43.3855   60.3348   64.8580 H   0  0  0  0  0  0  0  0  0  0  0  0
  -42.8750   57.1409   65.6263 O   0  0  0  0  0  0  0  0  0  0  0  0
  -43.9171   57.0014   66.6205 C   0  0  0  0  0  0  0  0  0  0  0  0
  -45.1000   56.3975   65.8983 C   0  0  0  0  0  0  0  0  0  0  0  0
  -46.4113   57.1487   66.0170 N   0  0  0  0  0  0  0  0  0  0  0  0
  -46.6541   58.0023   64.8141 C   0  0  0  0  0  0  0  0  0  0  0  0
  -46.3771   58.0265   67.2268 C   0  0  0  0  0  0  0  0  0  0  0  0
  -47.5382   56.1727   66.1467 C   0  0  0  0  0  0  0  0  0  0  0  0
 34 33  1  0  0  0
 34 35  1  0  0  0
 34 36  1  0  0  0
 34 37  1  0  0  0
 22 23  1  0  0  0
 22 25  1  0  0  0
 22 21  1  0  0  0
 27 26  1  0  0  0
 27 28  2  0  0  0
 27 31  1  0  0  0
 27 29  1  0  0  0
 25 26  1  0  0  0
 32 33  1  0  0  0
 32 31  1  0  0  0
 20 21  1  0  0  0
 20  2  1  0  0  0
  1  2  2  0  0  0
  2  3  1  0  0  0
  3  4  1  0  0  0
  4  5  1  0  0  0
  5  6  1  0  0  0
  6  7  1  0  0  0
  7  8  1  0  0  0
  8  9  1  0  0  0
  9 10  1  0  0  0
 10 11  2  0  0  0
 11 12  1  0  0  0
 12 13  1  0  0  0
 13 14  1  0  0  0
 14 15  1  0  0  0
 15 16  1  0  0  0
 16 17  1  0  0  0
 17 18  1  0  0  0
 18 19  1  0  0  0
 23 24  1  0  0  0
 29 30  1  0  0  0
M  CHG 1  28  -1
M  END
> <minimizedAffinity>
-7.18751

> <CNNscore>
0.3890017569

> <CNNaffinity>
6.6521363258

> <CNN_VS>
2.5876927376

> <CNNaffinity_variance>
0.5575702786

$$$$



 37 36  0  0  0  0  0  0  0  0999 V2000
  -47.5928   58.8162   67.1913 O   0  0  0  0  0  0  0  0  0  0  0  0
  -47.6343   58.0674   66.2636 C   0  0  0  0  0  0  0  0  0  0  0  0
  -48.8810   57.7010   65.5270 C   0  0  0  0  0  0  0  0  0  0  0  0
  -50.0443   58.6236   65.8386 C   0  0  0  0  0  0  0  0  0  0  0  0
  -50.0539   59.8701   64.9805 C   0  0  0  0  0  0  0  0  0  0  0  0
  -51.4324   60.3924   64.6504 C   0  0  0  0  0  0  0  0  0  0  0  0
  -51.8160   60.2295   63.2017 C   0  0  0  0  0  0  0  0  0  0  0  0
  -50.6378   59.8830   62.3314 C   0  0  0  0  0  0  0  0  0  0  0  0
  -50.7449   58.5832   61.5903 C   0  0  0  0  0  0  0  0  0  0  0  0
  -49.6521   57.6478   61.8934 C   0  0  0  0  0  0  0  0  0  0  0  0
  -49.0537   56.8107   61.0749 C   0  0  0  0  0  0  0  0  0  0  0  0
  -49.3103   56.6084   59.6266 C   0  0  0  0  0  0  0  0  0  0  0  0
  -48.2688   55.7945   58.8862 C   0  0  0  0  0  0  0  0  0  0  0  0
  -47.6088   56.5663   57.7767 C   0  0  0  0  0  0  0  0  0  0  0  0
  -48.1442   57.9608   57.5750 C   0  0  0  0  0  0  0  0  0  0  0  0
  -47.0968   59.0260   57.8134 C   0  0  0  0  0  0  0  0  0  0  0  0
  -46.4004   58.9431   59.1431 C   0  0  0  0  0  0  0  0  0  0  0  0
  -47.0055   59.8123   60.1714 C   0  0  0  0  0  0  0  0  0  0  0  0
  -47.8872   60.8383   59.6183 C   0  0  0  0  0  0  0  0  0  0  0  0
  -46.5660   57.4474   65.7625 O   0  0  0  0  0  0  0  0  0  0  0  0
  -45.5222   57.0648   66.6855 C   0  0  0  0  0  0  0  0  0  0  0  0
  -44.2791   56.8046   65.8660 C   0  0  0  0  0  0  0  0  0  0  0  0
  -44.5803   56.9662   64.4799 O   0  0  0  0  0  0  0  0  0  0  0  0
  -44.8371   57.8860   64.3100 H   0  0  0  0  0  0  0  0  0  0  0  0
  -43.0976   57.6820   66.2015 C   0  0  0  0  0  0  0  0  0  0  0  0
  -42.9475   58.6676   65.1599 O   0  0  0  0  0  0  0  0  0  0  0  0
  -41.5178   59.3060   64.8815 P   0  0  0  0  0  0  0  0  0  0  0  0
  -41.6721   60.2328   63.7420 O   0  0  0  0  0  0  0  0  0  0  0  0
  -41.0240   59.8276   66.1711 O   0  0  0  0  0  0  0  0  0  0  0  0
  -41.6043   60.5435   66.4738 H   0  0  0  0  0  0  0  0  0  0  0  0
  -40.5338   58.1431   64.4382 O   0  0  0  0  0  0  0  0  0  0  0  0
  -39.1067   58.3054   64.6134 C   0  0  0  0  0  0  0  0  0  0  0  0
  -38.4664   57.6814   63.3943 C   0  0  0  0  0  0  0  0  0  0  0  0
  -37.7192   58.6257   62.4735 N   0  0  0  0  0  0  0  0  0  0  0  0
  -38.3567   59.9777   62.4554 C   0  0  0  0  0  0  0  0  0  0  0  0
  -37.7241   58.0765   61.0829 C   0  0  0  0  0  0  0  0  0  0  0  0
  -36.3055   58.7693   62.9427 C   0  0  0  0  0  0  0  0  0  0  0  0
 34 33  1  0  0  0
 34 35  1  0  0  0
 34 36  1  0  0  0
 34 37  1  0  0  0
 22 23  1  0  0  0
 22 25  1  0  0  0
 22 21  1  0  0  0
 27 26  1  0  0  0
 27 28  2  0  0  0
 27 31  1  0  0  0
 27 29  1  0  0  0
 25 26  1  0  0  0
 32 33  1  0  0  0
 32 31  1  0  0  0
 20 21  1  0  0  0
 20  2  1  0  0  0
  1  2  2  0  0  0
  2  3  1  0  0  0
  3  4  1  0  0  0
  4  5  1  0  0  0
  5  6  1  0  0  0
  6  7  1  0  0  0
  7  8  1  0  0  0
  8  9  1  0  0  0
  9 10  1  0  0  0
 10 11  2  0  0  0
 11 12  1  0  0  0
 12 13  1  0  0  0
 13 14  1  0  0  0
 14 15  1  0  0  0
 15 16  1  0  0  0
 16 17  1  0  0  0
 17 18  1  0  0  0
 18 19  1  0  0  0
 23 24  1  0  0  0
 29 30  1  0  0  0
M  CHG 1  28  -1
M  END
> <minimizedAffinity>
-7.33887

> <CNNscore>
0.3478472233

> <CNNaffinity>
6.3628425598

> <CNN_VS>
2.2132971287

> <CNNaffinity_variance>
0.1953158081

$$$$



 37 36  0  0  0  0  0  0  0  0999 V2000
  -44.3012   58.6967   66.2646 O   0  0  0  0  0  0  0  0  0  0  0  0
  -44.3027   57.6439   65.7038 C   0  0  0  0  0  0  0  0  0  0  0  0
  -45.5174   56.8020   65.4876 C   0  0  0  0  0  0  0  0  0  0  0  0
  -46.5172   56.9043   66.6241 C   0  0  0  0  0  0  0  0  0  0  0  0
  -47.9376   56.6191   66.1867 C   0  0  0  0  0  0  0  0  0  0  0  0
  -48.5878   57.7353   65.4036 C   0  0  0  0  0  0  0  0  0  0  0  0
  -48.3795   59.1028   66.0026 C   0  0  0  0  0  0  0  0  0  0  0  0
  -49.2600   60.1468   65.3700 C   0  0  0  0  0  0  0  0  0  0  0  0
  -50.7148   59.7926   65.2781 C   0  0  0  0  0  0  0  0  0  0  0  0
  -51.3880   60.3908   64.1161 C   0  0  0  0  0  0  0  0  0  0  0  0
  -51.3909   59.9613   62.8735 C   0  0  0  0  0  0  0  0  0  0  0  0
  -50.7341   58.7481   62.3246 C   0  0  0  0  0  0  0  0  0  0  0  0
  -49.3319   58.9508   61.7878 C   0  0  0  0  0  0  0  0  0  0  0  0
  -49.0972   60.3500   61.2887 C   0  0  0  0  0  0  0  0  0  0  0  0
  -48.7165   60.4436   59.8333 C   0  0  0  0  0  0  0  0  0  0  0  0
  -47.3458   59.8683   59.5525 C   0  0  0  0  0  0  0  0  0  0  0  0
  -47.1675   59.3014   58.1717 C   0  0  0  0  0  0  0  0  0  0  0  0
  -46.1851   58.2009   58.1173 C   0  0  0  0  0  0  0  0  0  0  0  0
  -46.4341   57.1516   59.1037 C   0  0  0  0  0  0  0  0  0  0  0  0
  -43.2102   57.0709   65.1989 O   0  0  0  0  0  0  0  0  0  0  0  0
  -43.3920   55.9001   64.3717 C   0  0  0  0  0  0  0  0  0  0  0  0
  -42.0143   55.3971   64.0063 C   0  0  0  0  0  0  0  0  0  0  0  0
  -42.0586   53.9827   63.8174 O   0  0  0  0  0  0  0  0  0  0  0  0
  -42.6378   53.7747   63.0675 H   0  0  0  0  0  0  0  0  0  0  0  0
  -41.4123   56.0233   62.7719 C   0  0  0  0  0  0  0  0  0  0  0  0
  -40.2861   56.8310   63.1697 O   0  0  0  0  0  0  0  0  0  0  0  0
  -40.4754   58.3963   63.3776 P   0  0  0  0  0  0  0  0  0  0  0  0
  -41.4711   58.8476   62.3847 O   0  0  0  0  0  0  0  0  0  0  0  0
  -40.7447   58.6073   64.8135 O   0  0  0  0  0  0  0  0  0  0  0  0
  -41.5838   58.1826   65.0509 H   0  0  0  0  0  0  0  0  0  0  0  0
  -39.0969   59.1098   63.0492 O   0  0  0  0  0  0  0  0  0  0  0  0
  -37.9968   59.0095   63.9838 C   0  0  0  0  0  0  0  0  0  0  0  0
  -36.7627   59.4274   63.2170 C   0  0  0  0  0  0  0  0  0  0  0  0
  -35.7947   58.3196   62.8519 N   0  0  0  0  0  0  0  0  0  0  0  0
  -34.3958   58.8374   62.7523 C   0  0  0  0  0  0  0  0  0  0  0  0
  -36.1815   57.7319   61.5327 C   0  0  0  0  0  0  0  0  0  0  0  0
  -35.8364   57.2519   63.8995 C   0  0  0  0  0  0  0  0  0  0  0  0
 34 33  1  0  0  0
 34 35  1  0  0  0
 34 36  1  0  0  0
 34 37  1  0  0  0
 22 23  1  0  0  0
 22 25  1  0  0  0
 22 21  1  0  0  0
 27 26  1  0  0  0
 27 28  2  0  0  0
 27 31  1  0  0  0
 27 29  1  0  0  0
 25 26  1  0  0  0
 32 33  1  0  0  0
 32 31  1  0  0  0
 20 21  1  0  0  0
 20  2  1  0  0  0
  1  2  2  0  0  0
  2  3  1  0  0  0
  3  4  1  0  0  0
  4  5  1  0  0  0
  5  6  1  0  0  0
  6  7  1  0  0  0
  7  8  1  0  0  0
  8  9  1  0  0  0
  9 10  1  0  0  0
 10 11  2  0  0  0
 11 12  1  0  0  0
 12 13  1  0  0  0
 13 14  1  0  0  0
 14 15  1  0  0  0
 15 16  1  0  0  0
 16 17  1  0  0  0
 17 18  1  0  0  0
 18 19  1  0  0  0
 23 24  1  0  0  0
 29 30  1  0  0  0
M  CHG 1  28  -1
M  END
> <minimizedAffinity>
-7.33771

> <CNNscore>
0.3380194902

> <CNNaffinity>
6.4458007812

> <CNN_VS>
2.1788063049

> <CNNaffinity_variance>
0.2028382570

$$$$



 37 36  0  0  0  0  0  0  0  0999 V2000
  -47.2228   55.9863   66.3278 O   0  0  0  0  0  0  0  0  0  0  0  0
  -46.5014   56.9216   66.4946 C   0  0  0  0  0  0  0  0  0  0  0  0
  -46.8955   58.1797   67.1967 C   0  0  0  0  0  0  0  0  0  0  0  0
  -48.1218   58.8354   66.5904 C   0  0  0  0  0  0  0  0  0  0  0  0
  -47.8692   60.2598   66.1458 C   0  0  0  0  0  0  0  0  0  0  0  0
  -48.2309   60.5399   64.7062 C   0  0  0  0  0  0  0  0  0  0  0  0
  -48.9687   59.4116   64.0316 C   0  0  0  0  0  0  0  0  0  0  0  0
  -50.4345   59.7064   63.8589 C   0  0  0  0  0  0  0  0  0  0  0  0
  -50.9870   59.4450   62.4890 C   0  0  0  0  0  0  0  0  0  0  0  0
  -50.4302   58.2406   61.8562 C   0  0  0  0  0  0  0  0  0  0  0  0
  -49.7826   58.1522   60.7153 C   0  0  0  0  0  0  0  0  0  0  0  0
  -49.4254   59.2488   59.7803 C   0  0  0  0  0  0  0  0  0  0  0  0
  -48.2128   60.0696   60.1691 C   0  0  0  0  0  0  0  0  0  0  0  0
  -47.0012   59.7460   59.3388 C   0  0  0  0  0  0  0  0  0  0  0  0
  -46.1504   58.6244   59.8771 C   0  0  0  0  0  0  0  0  0  0  0  0
  -45.9755   57.4980   58.8825 C   0  0  0  0  0  0  0  0  0  0  0  0
  -46.1760   57.8864   57.4441 C   0  0  0  0  0  0  0  0  0  0  0  0
  -47.0055   56.9243   56.6923 C   0  0  0  0  0  0  0  0  0  0  0  0
  -48.4169   57.2991   56.6307 C   0  0  0  0  0  0  0  0  0  0  0  0
  -45.2403   56.9714   66.0657 O   0  0  0  0  0  0  0  0  0  0  0  0
  -45.0028   57.5279   64.7535 C   0  0  0  0  0  0  0  0  0  0  0  0
  -43.9082   58.5597   64.9009 C   0  0  0  0  0  0  0  0  0  0  0  0
  -44.4830   59.8146   65.2654 O   0  0  0  0  0  0  0  0  0  0  0  0
  -44.9083   59.7355   66.1336 H   0  0  0  0  0  0  0  0  0  0  0  0
  -42.8380   58.2161   65.9083 C   0  0  0  0  0  0  0  0  0  0  0  0
  -42.0305   59.3883   66.1379 O   0  0  0  0  0  0  0  0  0  0  0  0
  -40.9338   59.8101   65.0661 P   0  0  0  0  0  0  0  0  0  0  0  0
  -41.5338   60.8655   64.2252 O   0  0  0  0  0  0  0  0  0  0  0  0
  -39.6956   60.1035   65.8144 O   0  0  0  0  0  0  0  0  0  0  0  0
  -39.8410   60.8684   66.3928 H   0  0  0  0  0  0  0  0  0  0  0  0
  -40.6369   58.5556   64.1414 O   0  0  0  0  0  0  0  0  0  0  0  0
  -39.8185   58.7141   62.9587 C   0  0  0  0  0  0  0  0  0  0  0  0
  -38.8540   57.5499   62.9635 C   0  0  0  0  0  0  0  0  0  0  0  0
  -37.3800   57.9017   62.9272 N   0  0  0  0  0  0  0  0  0  0  0  0
  -36.6965   57.4907   64.1916 C   0  0  0  0  0  0  0  0  0  0  0  0
  -37.2224   59.3788   62.7573 C   0  0  0  0  0  0  0  0  0  0  0  0
  -36.7252   57.1998   61.7792 C   0  0  0  0  0  0  0  0  0  0  0  0
 34 33  1  0  0  0
 34 35  1  0  0  0
 34 36  1  0  0  0
 34 37  1  0  0  0
 22 23  1  0  0  0
 22 25  1  0  0  0
 22 21  1  0  0  0
 27 26  1  0  0  0
 27 28  2  0  0  0
 27 31  1  0  0  0
 27 29  1  0  0  0
 25 26  1  0  0  0
 32 33  1  0  0  0
 32 31  1  0  0  0
 20 21  1  0  0  0
 20  2  1  0  0  0
  1  2  2  0  0  0
  2  3  1  0  0  0
  3  4  1  0  0  0
  4  5  1  0  0  0
  5  6  1  0  0  0
  6  7  1  0  0  0
  7  8  1  0  0  0
  8  9  1  0  0  0
  9 10  1  0  0  0
 10 11  2  0  0  0
 11 12  1  0  0  0
 12 13  1  0  0  0
 13 14  1  0  0  0
 14 15  1  0  0  0
 15 16  1  0  0  0
 16 17  1  0  0  0
 17 18  1  0  0  0
 18 19  1  0  0  0
 23 24  1  0  0  0
 29 30  1  0  0  0
M  CHG 1  28  -1
M  END
> <minimizedAffinity>
-7.22204

> <CNNscore>
0.3346084654

> <CNNaffinity>
6.2517385483

> <CNN_VS>
2.0918846130

> <CNNaffinity_variance>
0.7083802223

$$$$



 37 36  0  0  0  0  0  0  0  0999 V2000
  -46.3980   58.8517   62.9576 O   0  0  0  0  0  0  0  0  0  0  0  0
  -45.3775   58.7641   62.3463 C   0  0  0  0  0  0  0  0  0  0  0  0
  -45.2560   58.1640   60.9838 C   0  0  0  0  0  0  0  0  0  0  0  0
  -46.3576   58.6106   60.0412 C   0  0  0  0  0  0  0  0  0  0  0  0
  -46.0156   58.3819   58.5848 C   0  0  0  0  0  0  0  0  0  0  0  0
  -46.9775   59.0171   57.6085 C   0  0  0  0  0  0  0  0  0  0  0  0
  -47.7602   58.0232   56.7889 C   0  0  0  0  0  0  0  0  0  0  0  0
  -47.0797   56.6832   56.7081 C   0  0  0  0  0  0  0  0  0  0  0  0
  -47.8481   55.5344   57.2913 C   0  0  0  0  0  0  0  0  0  0  0  0
  -47.6293   55.3597   58.7345 C   0  0  0  0  0  0  0  0  0  0  0  0
  -48.3653   55.8137   59.7248 C   0  0  0  0  0  0  0  0  0  0  0  0
  -49.6211   56.6015   59.6433 C   0  0  0  0  0  0  0  0  0  0  0  0
  -49.9164   57.4855   60.8377 C   0  0  0  0  0  0  0  0  0  0  0  0
  -49.8860   58.9505   60.4984 C   0  0  0  0  0  0  0  0  0  0  0  0
  -49.9357   59.8735   61.6889 C   0  0  0  0  0  0  0  0  0  0  0  0
  -51.1482   59.6332   62.5610 C   0  0  0  0  0  0  0  0  0  0  0  0
  -50.9952   60.0673   63.9921 C   0  0  0  0  0  0  0  0  0  0  0  0
  -50.1015   59.1898   64.7734 C   0  0  0  0  0  0  0  0  0  0  0  0
  -50.4031   59.1800   66.2035 C   0  0  0  0  0  0  0  0  0  0  0  0
  -44.1993   59.1861   62.8052 O   0  0  0  0  0  0  0  0  0  0  0  0
  -44.1707   60.4462   63.5120 C   0  0  0  0  0  0  0  0  0  0  0  0
  -42.7652   60.9892   63.3933 C   0  0  0  0  0  0  0  0  0  0  0  0
  -42.8129   62.4109   63.2717 O   0  0  0  0  0  0  0  0  0  0  0  0
  -43.1902   62.7921   64.0799 H   0  0  0  0  0  0  0  0  0  0  0  0
  -41.8468   60.6404   64.5393 C   0  0  0  0  0  0  0  0  0  0  0  0
  -40.7132   59.9195   64.0158 O   0  0  0  0  0  0  0  0  0  0  0  0
  -40.4859   58.4016   64.4324 P   0  0  0  0  0  0  0  0  0  0  0  0
  -39.1767   58.3307   65.1123 O   0  0  0  0  0  0  0  0  0  0  0  0
  -41.6974   57.9714   65.1578 O   0  0  0  0  0  0  0  0  0  0  0  0
  -41.7831   58.4842   65.9767 H   0  0  0  0  0  0  0  0  0  0  0  0
  -40.3987   57.5322   63.1081 O   0  0  0  0  0  0  0  0  0  0  0  0
  -39.1121   57.2931   62.4905 C   0  0  0  0  0  0  0  0  0  0  0  0
  -39.2305   57.8091   61.0744 C   0  0  0  0  0  0  0  0  0  0  0  0
  -38.6683   59.1931   60.8171 N   0  0  0  0  0  0  0  0  0  0  0  0
  -37.9602   59.2513   59.5018 C   0  0  0  0  0  0  0  0  0  0  0  0
  -37.6982   59.5478   61.8981 C   0  0  0  0  0  0  0  0  0  0  0  0
  -39.7821   60.1924   60.8057 C   0  0  0  0  0  0  0  0  0  0  0  0
 34 33  1  0  0  0
 34 35  1  0  0  0
 34 36  1  0  0  0
 34 37  1  0  0  0
 22 23  1  0  0  0
 22 25  1  0  0  0
 22 21  1  0  0  0
 27 26  1  0  0  0
 27 28  2  0  0  0
 27 31  1  0  0  0
 27 29  1  0  0  0
 25 26  1  0  0  0
 32 33  1  0  0  0
 32 31  1  0  0  0
 20 21  1  0  0  0
 20  2  1  0  0  0
  1  2  2  0  0  0
  2  3  1  0  0  0
  3  4  1  0  0  0
  4  5  1  0  0  0
  5  6  1  0  0  0
  6  7  1  0  0  0
  7  8  1  0  0  0
  8  9  1  0  0  0
  9 10  1  0  0  0
 10 11  2  0  0  0
 11 12  1  0  0  0
 12 13  1  0  0  0
 13 14  1  0  0  0
 14 15  1  0  0  0
 15 16  1  0  0  0
 16 17  1  0  0  0
 17 18  1  0  0  0
 18 19  1  0  0  0
 23 24  1  0  0  0
 29 30  1  0  0  0
M  CHG 1  28  -1
M  END
> <minimizedAffinity>
-7.19295

> <CNNscore>
0.3166815639

> <CNNaffinity>
6.3029599190

> <CNN_VS>
1.9960311651

> <CNNaffinity_variance>
0.2612784505

$$$$



 37 36  0  0  0  0  0  0  0  0999 V2000
  -46.8574   58.1847   67.9785 O   0  0  0  0  0  0  0  0  0  0  0  0
  -46.5774   57.7605   66.8993 C   0  0  0  0  0  0  0  0  0  0  0  0
  -47.5424   57.0901   65.9770 C   0  0  0  0  0  0  0  0  0  0  0  0
  -48.5495   58.0518   65.3749 C   0  0  0  0  0  0  0  0  0  0  0  0
  -49.8625   58.0772   66.1270 C   0  0  0  0  0  0  0  0  0  0  0  0
  -50.6173   59.3817   66.0252 C   0  0  0  0  0  0  0  0  0  0  0  0
  -50.2190   60.2266   64.8420 C   0  0  0  0  0  0  0  0  0  0  0  0
  -51.2517   60.2044   63.7473 C   0  0  0  0  0  0  0  0  0  0  0  0
  -50.7738   59.6905   62.4215 C   0  0  0  0  0  0  0  0  0  0  0  0
  -50.6368   58.2275   62.3786 C   0  0  0  0  0  0  0  0  0  0  0  0
  -50.6333   57.4462   61.3211 C   0  0  0  0  0  0  0  0  0  0  0  0
  -50.7439   57.8400   59.8939 C   0  0  0  0  0  0  0  0  0  0  0  0
  -49.5298   57.5422   59.0381 C   0  0  0  0  0  0  0  0  0  0  0  0
  -48.2678   57.4095   59.8456 C   0  0  0  0  0  0  0  0  0  0  0  0
  -47.4992   58.6931   60.0278 C   0  0  0  0  0  0  0  0  0  0  0  0
  -46.5005   58.9356   58.9177 C   0  0  0  0  0  0  0  0  0  0  0  0
  -45.8807   57.6935   58.3409 C   0  0  0  0  0  0  0  0  0  0  0  0
  -46.1973   57.4950   56.9128 C   0  0  0  0  0  0  0  0  0  0  0  0
  -46.9901   56.2943   56.6558 C   0  0  0  0  0  0  0  0  0  0  0  0
  -45.3545   57.8218   66.3726 O   0  0  0  0  0  0  0  0  0  0  0  0
  -44.8397   56.6293   65.7393 C   0  0  0  0  0  0  0  0  0  0  0  0
  -43.6247   57.0410   64.9401 C   0  0  0  0  0  0  0  0  0  0  0  0
  -42.9894   55.8788   64.4072 O   0  0  0  0  0  0  0  0  0  0  0  0
  -43.5913   55.4362   63.7886 H   0  0  0  0  0  0  0  0  0  0  0  0
  -43.9008   57.9954   63.8038 C   0  0  0  0  0  0  0  0  0  0  0  0
  -42.9114   59.0437   63.8343 O   0  0  0  0  0  0  0  0  0  0  0  0
  -41.5949   58.9085   62.9523 P   0  0  0  0  0  0  0  0  0  0  0  0
  -41.9816   58.2304   61.6986 O   0  0  0  0  0  0  0  0  0  0  0  0
  -40.9855   60.2513   62.8855 O   0  0  0  0  0  0  0  0  0  0  0  0
  -41.5837   60.8550   62.4179 H   0  0  0  0  0  0  0  0  0  0  0  0
  -40.5760   57.9689   63.7242 O   0  0  0  0  0  0  0  0  0  0  0  0
  -39.7045   57.0886   62.9763 C   0  0  0  0  0  0  0  0  0  0  0  0
  -38.2973   57.5687   63.2501 C   0  0  0  0  0  0  0  0  0  0  0  0
  -37.5366   58.1238   62.0622 N   0  0  0  0  0  0  0  0  0  0  0  0
  -38.4214   58.2423   60.8631 C   0  0  0  0  0  0  0  0  0  0  0  0
  -36.3982   57.2141   61.7279 C   0  0  0  0  0  0  0  0  0  0  0  0
  -37.0022   59.4805   62.3987 C   0  0  0  0  0  0  0  0  0  0  0  0
 34 33  1  0  0  0
 34 35  1  0  0  0
 34 36  1  0  0  0
 34 37  1  0  0  0
 22 23  1  0  0  0
 22 25  1  0  0  0
 22 21  1  0  0  0
 27 26  1  0  0  0
 27 28  2  0  0  0
 27 31  1  0  0  0
 27 29  1  0  0  0
 25 26  1  0  0  0
 32 33  1  0  0  0
 32 31  1  0  0  0
 20 21  1  0  0  0
 20  2  1  0  0  0
  1  2  2  0  0  0
  2  3  1  0  0  0
  3  4  1  0  0  0
  4  5  1  0  0  0
  5  6  1  0  0  0
  6  7  1  0  0  0
  7  8  1  0  0  0
  8  9  1  0  0  0
  9 10  1  0  0  0
 10 11  2  0  0  0
 11 12  1  0  0  0
 12 13  1  0  0  0
 13 14  1  0  0  0
 14 15  1  0  0  0
 15 16  1  0  0  0
 16 17  1  0  0  0
 17 18  1  0  0  0
 18 19  1  0  0  0
 23 24  1  0  0  0
 29 30  1  0  0  0
M  CHG 1  28  -1
M  END
> <minimizedAffinity>
-7.43013

> <CNNscore>
0.3012532294

> <CNNaffinity>
6.3709182739

> <CNN_VS>
1.9192596674

> <CNNaffinity_variance>
0.4210700095

$$$$
