


 25 25  0  0  0  0  0  0  0  0999 V2000
  -50.5794   58.5029   61.9945 C   0  0  0  0  0  0  0  0  0  0  0  0
  -50.7995   59.9756   62.3711 C   0  0  0  0  0  0  0  0  0  0  0  0
  -51.3466   60.0850   63.7878 C   0  0  0  0  0  0  0  0  0  0  0  0
  -50.1879   60.2839   64.7655 C   0  0  0  0  0  0  0  0  0  0  0  0
  -50.4472   59.5051   66.0550 C   0  0  0  0  0  0  0  0  0  0  0  0
  -48.5684   57.6237   65.9741 C   0  0  0  0  0  0  0  0  0  0  0  0
  -50.0405   58.0505   65.8124 C   0  0  0  0  0  0  0  0  0  0  0  0
  -47.4502   58.6389   66.2561 C   0  0  0  0  0  0  0  0  0  0  0  0
  -46.5809   58.0558   67.3798 C   0  0  0  0  0  0  0  0  0  0  0  0
  -45.4661   57.0200   67.0990 C   0  0  0  0  0  0  0  0  0  0  0  0
  -45.1421   56.5423   65.6699 C   0  0  0  0  0  0  0  0  0  0  0  0
  -43.0323   56.4461   64.2670 C   0  0  0  0  0  0  0  0  0  0  0  0
  -43.8901   57.2986   65.2052 C   0  0  0  0  0  0  0  0  0  0  0  0
  -49.8983   58.3176   60.6137 C   0  0  0  0  0  0  0  0  0  0  0  0
  -48.4845   57.6971   60.7110 C   0  0  0  0  0  0  0  0  0  0  0  0
  -46.7076   58.7266   57.6226 C   0  0  0  0  0  0  0  0  0  0  0  0
  -46.5682   57.5094   56.9427 C   0  0  0  0  0  0  0  0  0  0  0  0
  -47.3472   58.7725   58.8671 C   0  0  0  0  0  0  0  0  0  0  0  0
  -47.0743   56.3506   57.5311 C   0  0  0  0  0  0  0  0  0  0  0  0
  -47.7031   56.4022   58.7741 C   0  0  0  0  0  0  0  0  0  0  0  0
  -47.8264   57.6076   59.4768 C   0  0  0  0  0  0  0  0  0  0  0  0
  -46.9822   55.1353   56.9377 O   0  0  0  0  0  0  0  0  0  0  0  0
  -48.1758   55.2420   59.3145 O   0  0  0  0  0  0  0  0  0  0  0  0
  -46.5677   55.0524   56.1015 H   0  0  0  0  0  0  0  0  0  0  0  0
  -48.0920   54.4370   58.8424 H   0  0  0  0  0  0  0  0  0  0  0  0
 12 13  1  0  0  0
  9 10  2  0  0  0
  9  8  1  0  0  0
  6  7  2  0  0  0
  6  8  1  0  0  0
 10 11  1  0  0  0
  7  5  1  0  0  0
 16 17  2  0  0  0
 16 18  1  0  0  0
 17 19  1  0  0  0
 18 21  2  0  0  0
 13 11  1  0  0  0
  5  4  1  0  0  0
  4  3  1  0  0  0
  3  2  1  0  0  0
  2  1  1  0  0  0
  1 14  1  0  0  0
 14 15  1  0  0  0
 15 21  1  0  0  0
 19 20  2  0  0  0
 19 22  1  0  0  0
 20 21  1  0  0  0
 20 23  1  0  0  0
 22 24  1  0  0  0
 23 25  1  0  0  0
M  END
> <minimizedAffinity>
-8.41280

> <CNNscore>
0.8393077254

> <CNNaffinity>
7.2874922752

> <CNN_VS>
6.1164484024

> <CNNaffinity_variance>
0.3705415130

$$$$



 25 25  0  0  0  0  0  0  0  0999 V2000
  -47.2651   61.1682   60.9926 C   0  0  0  0  0  0  0  0  0  0  0  0
  -46.0432   60.3263   61.3891 C   0  0  0  0  0  0  0  0  0  0  0  0
  -45.3052   60.9765   62.5513 C   0  0  0  0  0  0  0  0  0  0  0  0
  -45.3138   60.0294   63.7517 C   0  0  0  0  0  0  0  0  0  0  0  0
  -46.2799   60.5416   64.8198 C   0  0  0  0  0  0  0  0  0  0  0  0
  -46.8135   58.3365   66.2087 C   0  0  0  0  0  0  0  0  0  0  0  0
  -46.0851   59.6881   66.0743 C   0  0  0  0  0  0  0  0  0  0  0  0
  -47.8400   57.8554   65.1716 C   0  0  0  0  0  0  0  0  0  0  0  0
  -49.1826   57.6997   65.9006 C   0  0  0  0  0  0  0  0  0  0  0  0
  -50.2800   58.7889   65.8373 C   0  0  0  0  0  0  0  0  0  0  0  0
  -50.1003   60.0761   65.0088 C   0  0  0  0  0  0  0  0  0  0  0  0
  -51.8887   60.3169   63.2277 C   0  0  0  0  0  0  0  0  0  0  0  0
  -50.5059   59.7532   63.5642 C   0  0  0  0  0  0  0  0  0  0  0  0
  -47.7329   60.9226   59.5347 C   0  0  0  0  0  0  0  0  0  0  0  0
  -48.5913   59.6451   59.3781 C   0  0  0  0  0  0  0  0  0  0  0  0
  -46.2905   58.0065   56.9747 C   0  0  0  0  0  0  0  0  0  0  0  0
  -46.7230   56.6743   57.0134 C   0  0  0  0  0  0  0  0  0  0  0  0
  -46.9213   58.9783   57.7606 C   0  0  0  0  0  0  0  0  0  0  0  0
  -47.7873   56.3388   57.8501 C   0  0  0  0  0  0  0  0  0  0  0  0
  -48.4057   57.3098   58.6359 C   0  0  0  0  0  0  0  0  0  0  0  0
  -47.9671   58.6401   58.6268 C   0  0  0  0  0  0  0  0  0  0  0  0
  -48.2668   55.0742   57.9431 O   0  0  0  0  0  0  0  0  0  0  0  0
  -49.4379   56.9337   59.4451 O   0  0  0  0  0  0  0  0  0  0  0  0
  -47.8820   54.3886   57.4334 H   0  0  0  0  0  0  0  0  0  0  0  0
  -49.7294   56.0432   59.4494 H   0  0  0  0  0  0  0  0  0  0  0  0
 12 13  1  0  0  0
  9 10  2  0  0  0
  9  8  1  0  0  0
  6  7  2  0  0  0
  6  8  1  0  0  0
 10 11  1  0  0  0
  7  5  1  0  0  0
 16 17  2  0  0  0
 16 18  1  0  0  0
 17 19  1  0  0  0
 18 21  2  0  0  0
 13 11  1  0  0  0
  5  4  1  0  0  0
  4  3  1  0  0  0
  3  2  1  0  0  0
  2  1  1  0  0  0
  1 14  1  0  0  0
 14 15  1  0  0  0
 15 21  1  0  0  0
 19 20  2  0  0  0
 19 22  1  0  0  0
 20 21  1  0  0  0
 20 23  1  0  0  0
 22 24  1  0  0  0
 23 25  1  0  0  0
M  END
> <minimizedAffinity>
-8.09440

> <CNNscore>
0.5407685041

> <CNNaffinity>
6.8002014160

> <CNN_VS>
3.6773347855

> <CNNaffinity_variance>
0.3059126735

$$$$



 25 25  0  0  0  0  0  0  0  0999 V2000
  -49.0903   60.0974   61.3652 C   0  0  0  0  0  0  0  0  0  0  0  0
  -49.9319   59.2061   62.2906 C   0  0  0  0  0  0  0  0  0  0  0  0
  -51.1514   59.9658   62.7943 C   0  0  0  0  0  0  0  0  0  0  0  0
  -51.0808   60.0871   64.3169 C   0  0  0  0  0  0  0  0  0  0  0  0
  -50.1104   59.0508   64.8834 C   0  0  0  0  0  0  0  0  0  0  0  0
  -48.2021   60.5037   66.0338 C   0  0  0  0  0  0  0  0  0  0  0  0
  -49.4762   59.6435   66.1430 C   0  0  0  0  0  0  0  0  0  0  0  0
  -47.4583   60.6961   64.7032 C   0  0  0  0  0  0  0  0  0  0  0  0
  -45.9618   60.5015   64.9877 C   0  0  0  0  0  0  0  0  0  0  0  0
  -45.2868   59.1113   64.9068 C   0  0  0  0  0  0  0  0  0  0  0  0
  -46.0725   57.8490   64.5009 C   0  0  0  0  0  0  0  0  0  0  0  0
  -47.3493   56.5740   66.2821 C   0  0  0  0  0  0  0  0  0  0  0  0
  -45.9767   56.8537   65.6653 C   0  0  0  0  0  0  0  0  0  0  0  0
  -47.7438   59.4510   60.9483 C   0  0  0  0  0  0  0  0  0  0  0  0
  -47.8408   57.9205   60.7449 C   0  0  0  0  0  0  0  0  0  0  0  0
  -46.1536   57.9099   57.4420 C   0  0  0  0  0  0  0  0  0  0  0  0
  -46.6770   56.7544   56.8470 C   0  0  0  0  0  0  0  0  0  0  0  0
  -46.5513   58.2841   58.7311 C   0  0  0  0  0  0  0  0  0  0  0  0
  -47.5948   55.9873   57.5644 C   0  0  0  0  0  0  0  0  0  0  0  0
  -47.9805   56.3614   58.8505 C   0  0  0  0  0  0  0  0  0  0  0  0
  -47.4460   57.4995   59.4677 C   0  0  0  0  0  0  0  0  0  0  0  0
  -48.1490   54.8580   57.0592 O   0  0  0  0  0  0  0  0  0  0  0  0
  -48.8752   55.5761   59.5173 O   0  0  0  0  0  0  0  0  0  0  0  0
  -47.9193   54.5680   56.1984 H   0  0  0  0  0  0  0  0  0  0  0  0
  -49.2313   54.8153   59.1022 H   0  0  0  0  0  0  0  0  0  0  0  0
 12 13  1  0  0  0
  9 10  2  0  0  0
  9  8  1  0  0  0
  6  7  2  0  0  0
  6  8  1  0  0  0
 10 11  1  0  0  0
  7  5  1  0  0  0
 16 17  2  0  0  0
 16 18  1  0  0  0
 17 19  1  0  0  0
 18 21  2  0  0  0
 13 11  1  0  0  0
  5  4  1  0  0  0
  4  3  1  0  0  0
  3  2  1  0  0  0
  2  1  1  0  0  0
  1 14  1  0  0  0
 14 15  1  0  0  0
 15 21  1  0  0  0
 19 20  2  0  0  0
 19 22  1  0  0  0
 20 21  1  0  0  0
 20 23  1  0  0  0
 22 24  1  0  0  0
 23 25  1  0  0  0
M  END
> <minimizedAffinity>
-8.07007

> <CNNscore>
0.5346090198

> <CNNaffinity>
6.8757681847

> <CNN_VS>
3.6758477688

> <CNNaffinity_variance>
0.0703635439

$$$$



 25 25  0  0  0  0  0  0  0  0999 V2000
  -50.8879   60.0234   65.0669 C   0  0  0  0  0  0  0  0  0  0  0  0
  -51.3307   60.2314   63.6110 C   0  0  0  0  0  0  0  0  0  0  0  0
  -50.6450   59.2236   62.6987 C   0  0  0  0  0  0  0  0  0  0  0  0
  -49.2913   59.7791   62.2552 C   0  0  0  0  0  0  0  0  0  0  0  0
  -49.4208   60.4550   60.8903 C   0  0  0  0  0  0  0  0  0  0  0  0
  -48.7734   58.5077   59.1976 C   0  0  0  0  0  0  0  0  0  0  0  0
  -49.8403   59.3876   59.8780 C   0  0  0  0  0  0  0  0  0  0  0  0
  -47.2691   58.7410   59.4053 C   0  0  0  0  0  0  0  0  0  0  0  0
  -46.6311   58.8544   58.0130 C   0  0  0  0  0  0  0  0  0  0  0  0
  -46.2585   57.6054   57.1788 C   0  0  0  0  0  0  0  0  0  0  0  0
  -46.5401   56.1770   57.6844 C   0  0  0  0  0  0  0  0  0  0  0  0
  -48.5198   56.7806   56.2199 C   0  0  0  0  0  0  0  0  0  0  0  0
  -47.7590   55.6492   56.9155 C   0  0  0  0  0  0  0  0  0  0  0  0
  -49.4042   60.3986   65.3169 C   0  0  0  0  0  0  0  0  0  0  0  0
  -48.8319   59.7846   66.6165 C   0  0  0  0  0  0  0  0  0  0  0  0
  -47.9611   56.4408   65.2688 C   0  0  0  0  0  0  0  0  0  0  0  0
  -46.8161   56.1140   66.0074 C   0  0  0  0  0  0  0  0  0  0  0  0
  -48.6186   57.6578   65.4846 C   0  0  0  0  0  0  0  0  0  0  0  0
  -46.3463   57.0241   66.9542 C   0  0  0  0  0  0  0  0  0  0  0  0
  -47.0013   58.2374   67.1584 C   0  0  0  0  0  0  0  0  0  0  0  0
  -48.1316   58.5885   66.4092 C   0  0  0  0  0  0  0  0  0  0  0  0
  -45.2477   56.7823   67.7108 O   0  0  0  0  0  0  0  0  0  0  0  0
  -46.5009   59.0999   68.0898 O   0  0  0  0  0  0  0  0  0  0  0  0
  -44.7753   55.9797   67.6079 H   0  0  0  0  0  0  0  0  0  0  0  0
  -45.7447   58.8626   68.5896 H   0  0  0  0  0  0  0  0  0  0  0  0
 12 13  1  0  0  0
  9 10  2  0  0  0
  9  8  1  0  0  0
  6  7  2  0  0  0
  6  8  1  0  0  0
 10 11  1  0  0  0
  7  5  1  0  0  0
 16 17  2  0  0  0
 16 18  1  0  0  0
 17 19  1  0  0  0
 18 21  2  0  0  0
 13 11  1  0  0  0
  5  4  1  0  0  0
  4  3  1  0  0  0
  3  2  1  0  0  0
  2  1  1  0  0  0
  1 14  1  0  0  0
 14 15  1  0  0  0
 15 21  1  0  0  0
 19 20  2  0  0  0
 19 22  1  0  0  0
 20 21  1  0  0  0
 20 23  1  0  0  0
 22 24  1  0  0  0
 23 25  1  0  0  0
M  END
> <minimizedAffinity>
-8.06309

> <CNNscore>
0.4757444263

> <CNNaffinity>
6.4988641739

> <CNN_VS>
3.0917983055

> <CNNaffinity_variance>
0.1472158432

$$$$



 25 25  0  0  0  0  0  0  0  0999 V2000
  -39.2122   60.0859   64.6719 C   0  0  0  0  0  0  0  0  0  0  0  0
  -39.6996   58.6662   64.9976 C   0  0  0  0  0  0  0  0  0  0  0  0
  -41.1623   58.6909   65.4192 C   0  0  0  0  0  0  0  0  0  0  0  0
  -42.0477   58.4608   64.1940 C   0  0  0  0  0  0  0  0  0  0  0  0
  -42.0158   56.9869   63.7904 C   0  0  0  0  0  0  0  0  0  0  0  0
  -40.9707   56.7750   61.3534 C   0  0  0  0  0  0  0  0  0  0  0  0
  -42.1993   56.9134   62.2735 C   0  0  0  0  0  0  0  0  0  0  0  0
  -39.5342   56.8296   61.8957 C   0  0  0  0  0  0  0  0  0  0  0  0
  -38.7411   57.7779   60.9846 C   0  0  0  0  0  0  0  0  0  0  0  0
  -37.2060   57.9340   61.1031 C   0  0  0  0  0  0  0  0  0  0  0  0
  -36.3824   57.1188   62.1193 C   0  0  0  0  0  0  0  0  0  0  0  0
  -34.2662   58.4596   62.5096 C   0  0  0  0  0  0  0  0  0  0  0  0
  -34.9017   57.2902   61.7537 C   0  0  0  0  0  0  0  0  0  0  0  0
  -37.8725   60.1110   63.8912 C   0  0  0  0  0  0  0  0  0  0  0  0
  -36.6352   60.2450   64.8101 C   0  0  0  0  0  0  0  0  0  0  0  0
  -35.2716   63.6688   64.3933 C   0  0  0  0  0  0  0  0  0  0  0  0
  -35.5014   64.2336   65.6549 C   0  0  0  0  0  0  0  0  0  0  0  0
  -35.6496   62.3467   64.1306 C   0  0  0  0  0  0  0  0  0  0  0  0
  -36.1148   63.4554   66.6365 C   0  0  0  0  0  0  0  0  0  0  0  0
  -36.4957   62.1422   66.3658 C   0  0  0  0  0  0  0  0  0  0  0  0
  -36.2957   61.5732   65.1015 C   0  0  0  0  0  0  0  0  0  0  0  0
  -36.3697   63.9263   67.8819 O   0  0  0  0  0  0  0  0  0  0  0  0
  -37.0996   61.4214   67.3544 O   0  0  0  0  0  0  0  0  0  0  0  0
  -36.1311   64.8034   68.1091 H   0  0  0  0  0  0  0  0  0  0  0  0
  -37.2322   61.8043   68.1992 H   0  0  0  0  0  0  0  0  0  0  0  0
 12 13  1  0  0  0
  9 10  2  0  0  0
  9  8  1  0  0  0
  6  7  2  0  0  0
  6  8  1  0  0  0
 10 11  1  0  0  0
  7  5  1  0  0  0
 16 17  2  0  0  0
 16 18  1  0  0  0
 17 19  1  0  0  0
 18 21  2  0  0  0
 13 11  1  0  0  0
  5  4  1  0  0  0
  4  3  1  0  0  0
  3  2  1  0  0  0
  2  1  1  0  0  0
  1 14  1  0  0  0
 14 15  1  0  0  0
 15 21  1  0  0  0
 19 20  2  0  0  0
 19 22  1  0  0  0
 20 21  1  0  0  0
 20 23  1  0  0  0
 22 24  1  0  0  0
 23 25  1  0  0  0
M  END
> <minimizedAffinity>
-7.16747

> <CNNscore>
0.4636163414

> <CNNaffinity>
6.1425867081

> <CNN_VS>
2.8478035927

> <CNNaffinity_variance>
0.1287621707

$$$$



 25 25  0  0  0  0  0  0  0  0999 V2000
  -46.4019   57.2016   57.2028 C   0  0  0  0  0  0  0  0  0  0  0  0
  -47.4831   56.1514   57.4978 C   0  0  0  0  0  0  0  0  0  0  0  0
  -48.6884   56.8027   58.1620 C   0  0  0  0  0  0  0  0  0  0  0  0
  -48.9392   56.1425   59.5182 C   0  0  0  0  0  0  0  0  0  0  0  0
  -50.0050   56.9178   60.2924 C   0  0  0  0  0  0  0  0  0  0  0  0
  -50.1349   59.3607   61.3373 C   0  0  0  0  0  0  0  0  0  0  0  0
  -49.6347   58.4011   60.2398 C   0  0  0  0  0  0  0  0  0  0  0  0
  -51.1072   58.9074   62.4372 C   0  0  0  0  0  0  0  0  0  0  0  0
  -51.6596   60.1751   63.1050 C   0  0  0  0  0  0  0  0  0  0  0  0
  -51.3629   60.5168   64.5849 C   0  0  0  0  0  0  0  0  0  0  0  0
  -50.4659   59.6210   65.4615 C   0  0  0  0  0  0  0  0  0  0  0  0
  -48.1388   59.1992   64.5476 C   0  0  0  0  0  0  0  0  0  0  0  0
  -49.0311   60.1533   65.3454 C   0  0  0  0  0  0  0  0  0  0  0  0
  -46.4579   58.4245   58.1549 C   0  0  0  0  0  0  0  0  0  0  0  0
  -45.8105   58.1525   59.5334 C   0  0  0  0  0  0  0  0  0  0  0  0
  -46.9380   61.3781   60.9755 C   0  0  0  0  0  0  0  0  0  0  0  0
  -46.2336   61.4225   62.1858 C   0  0  0  0  0  0  0  0  0  0  0  0
  -46.7845   60.2907   60.1071 C   0  0  0  0  0  0  0  0  0  0  0  0
  -45.3838   60.3641   62.5066 C   0  0  0  0  0  0  0  0  0  0  0  0
  -45.2416   59.2808   61.6410 C   0  0  0  0  0  0  0  0  0  0  0  0
  -45.9592   59.2108   60.4401 C   0  0  0  0  0  0  0  0  0  0  0  0
  -44.6656   60.3324   63.6559 O   0  0  0  0  0  0  0  0  0  0  0  0
  -44.4050   58.2645   62.0001 O   0  0  0  0  0  0  0  0  0  0  0  0
  -44.7295   61.0390   64.2679 H   0  0  0  0  0  0  0  0  0  0  0  0
  -43.9261   58.3138   62.8040 H   0  0  0  0  0  0  0  0  0  0  0  0
 12 13  1  0  0  0
  9 10  2  0  0  0
  9  8  1  0  0  0
  6  7  2  0  0  0
  6  8  1  0  0  0
 10 11  1  0  0  0
  7  5  1  0  0  0
 16 17  2  0  0  0
 16 18  1  0  0  0
 17 19  1  0  0  0
 18 21  2  0  0  0
 13 11  1  0  0  0
  5  4  1  0  0  0
  4  3  1  0  0  0
  3  2  1  0  0  0
  2  1  1  0  0  0
  1 14  1  0  0  0
 14 15  1  0  0  0
 15 21  1  0  0  0
 19 20  2  0  0  0
 19 22  1  0  0  0
 20 21  1  0  0  0
 20 23  1  0  0  0
 22 24  1  0  0  0
 23 25  1  0  0  0
M  END
> <minimizedAffinity>
-7.90166

> <CNNscore>
0.4355582595

> <CNNaffinity>
6.4867873192

> <CNN_VS>
2.8253738880

> <CNNaffinity_variance>
0.0981271118

$$$$



 25 25  0  0  0  0  0  0  0  0999 V2000
  -49.0176   58.9034   66.3023 C   0  0  0  0  0  0  0  0  0  0  0  0
  -50.2689   59.6714   65.8516 C   0  0  0  0  0  0  0  0  0  0  0  0
  -50.4212   59.5967   64.3385 C   0  0  0  0  0  0  0  0  0  0  0  0
  -49.9797   58.2162   63.8514 C   0  0  0  0  0  0  0  0  0  0  0  0
  -49.1454   58.3490   62.5776 C   0  0  0  0  0  0  0  0  0  0  0  0
  -49.2969   59.6833   60.2813 C   0  0  0  0  0  0  0  0  0  0  0  0
  -49.7447   59.4817   61.7421 C   0  0  0  0  0  0  0  0  0  0  0  0
  -48.1653   58.8557   59.6525 C   0  0  0  0  0  0  0  0  0  0  0  0
  -47.5974   59.6766   58.4855 C   0  0  0  0  0  0  0  0  0  0  0  0
  -46.6736   59.0476   57.4151 C   0  0  0  0  0  0  0  0  0  0  0  0
  -46.3008   57.5524   57.4408 C   0  0  0  0  0  0  0  0  0  0  0  0
  -47.3711   55.3128   56.9240 C   0  0  0  0  0  0  0  0  0  0  0  0
  -47.3363   56.8058   56.5887 C   0  0  0  0  0  0  0  0  0  0  0  0
  -47.8083   59.8250   66.6075 C   0  0  0  0  0  0  0  0  0  0  0  0
  -46.4745   59.2876   66.0372 C   0  0  0  0  0  0  0  0  0  0  0  0
  -46.6094   61.2196   62.8741 C   0  0  0  0  0  0  0  0  0  0  0  0
  -45.9219   60.3811   61.9867 C   0  0  0  0  0  0  0  0  0  0  0  0
  -46.7868   60.8419   64.2105 C   0  0  0  0  0  0  0  0  0  0  0  0
  -45.4177   59.1706   62.4619 C   0  0  0  0  0  0  0  0  0  0  0  0
  -45.5911   58.8043   63.7955 C   0  0  0  0  0  0  0  0  0  0  0  0
  -46.2536   59.6442   64.6999 C   0  0  0  0  0  0  0  0  0  0  0  0
  -44.7438   58.3031   61.6676 O   0  0  0  0  0  0  0  0  0  0  0  0
  -45.0739   57.6143   64.2175 O   0  0  0  0  0  0  0  0  0  0  0  0
  -44.6033   58.5074   60.7640 H   0  0  0  0  0  0  0  0  0  0  0  0
  -44.6312   57.0543   63.6105 H   0  0  0  0  0  0  0  0  0  0  0  0
 12 13  1  0  0  0
  9 10  2  0  0  0
  9  8  1  0  0  0
  6  7  2  0  0  0
  6  8  1  0  0  0
 10 11  1  0  0  0
  7  5  1  0  0  0
 16 17  2  0  0  0
 16 18  1  0  0  0
 17 19  1  0  0  0
 18 21  2  0  0  0
 13 11  1  0  0  0
  5  4  1  0  0  0
  4  3  1  0  0  0
  3  2  1  0  0  0
  2  1  1  0  0  0
  1 14  1  0  0  0
 14 15  1  0  0  0
 15 21  1  0  0  0
 19 20  2  0  0  0
 19 22  1  0  0  0
 20 21  1  0  0  0
 20 23  1  0  0  0
 22 24  1  0  0  0
 23 25  1  0  0  0
M  END
> <minimizedAffinity>
-7.30865

> <CNNscore>
0.4279845655

> <CNNaffinity>
6.4484672546

> <CNN_VS>
2.7598445415

> <CNNaffinity_variance>
0.0738471076

$$$$



 25 25  0  0  0  0  0  0  0  0999 V2000
  -49.7251   58.3334   64.1152 C   0  0  0  0  0  0  0  0  0  0  0  0
  -50.2446   59.3091   63.0488 C   0  0  0  0  0  0  0  0  0  0  0  0
  -50.6274   58.5563   61.7820 C   0  0  0  0  0  0  0  0  0  0  0  0
  -49.9338   59.1989   60.5804 C   0  0  0  0  0  0  0  0  0  0  0  0
  -48.9603   60.2798   61.0500 C   0  0  0  0  0  0  0  0  0  0  0  0
  -46.8919   59.9150   59.4177 C   0  0  0  0  0  0  0  0  0  0  0  0
  -48.1345   60.7225   59.8409 C   0  0  0  0  0  0  0  0  0  0  0  0
  -46.3668   58.7312   60.2446 C   0  0  0  0  0  0  0  0  0  0  0  0
  -45.7824   57.7113   59.2565 C   0  0  0  0  0  0  0  0  0  0  0  0
  -46.6672   56.6578   58.5479 C   0  0  0  0  0  0  0  0  0  0  0  0
  -48.1915   56.5968   58.7676 C   0  0  0  0  0  0  0  0  0  0  0  0
  -47.9456   57.3319   56.3535 C   0  0  0  0  0  0  0  0  0  0  0  0
  -48.8555   57.3141   57.5842 C   0  0  0  0  0  0  0  0  0  0  0  0
  -48.1822   58.1772   64.1048 C   0  0  0  0  0  0  0  0  0  0  0  0
  -47.5826   57.9664   65.5153 C   0  0  0  0  0  0  0  0  0  0  0  0
  -44.1668   56.5272   65.6442 C   0  0  0  0  0  0  0  0  0  0  0  0
  -43.3626   57.6746   65.6340 C   0  0  0  0  0  0  0  0  0  0  0  0
  -45.5617   56.6407   65.6080 C   0  0  0  0  0  0  0  0  0  0  0  0
  -43.9784   58.9249   65.5834 C   0  0  0  0  0  0  0  0  0  0  0  0
  -45.3676   59.0305   65.5395 C   0  0  0  0  0  0  0  0  0  0  0  0
  -46.1831   57.8917   65.5230 C   0  0  0  0  0  0  0  0  0  0  0  0
  -43.2723   60.0821   65.5728 O   0  0  0  0  0  0  0  0  0  0  0  0
  -45.9257   60.2743   65.4828 O   0  0  0  0  0  0  0  0  0  0  0  0
  -42.3360   60.0598   65.6010 H   0  0  0  0  0  0  0  0  0  0  0  0
  -45.3780   61.0345   65.4940 H   0  0  0  0  0  0  0  0  0  0  0  0
 12 13  1  0  0  0
  9 10  2  0  0  0
  9  8  1  0  0  0
  6  7  2  0  0  0
  6  8  1  0  0  0
 10 11  1  0  0  0
  7  5  1  0  0  0
 16 17  2  0  0  0
 16 18  1  0  0  0
 17 19  1  0  0  0
 18 21  2  0  0  0
 13 11  1  0  0  0
  5  4  1  0  0  0
  4  3  1  0  0  0
  3  2  1  0  0  0
  2  1  1  0  0  0
  1 14  1  0  0  0
 14 15  1  0  0  0
 15 21  1  0  0  0
 19 20  2  0  0  0
 19 22  1  0  0  0
 20 21  1  0  0  0
 20 23  1  0  0  0
 22 24  1  0  0  0
 23 25  1  0  0  0
M  END
> <minimizedAffinity>
-7.34804

> <CNNscore>
0.4199162126

> <CNNaffinity>
6.2914915085

> <CNN_VS>
2.6418993473

> <CNNaffinity_variance>
0.2834457159

$$$$



 25 25  0  0  0  0  0  0  0  0999 V2000
  -38.6882   59.4266   64.8341 C   0  0  0  0  0  0  0  0  0  0  0  0
  -38.5495   57.9025   64.7032 C   0  0  0  0  0  0  0  0  0  0  0  0
  -39.7914   57.3106   64.0509 C   0  0  0  0  0  0  0  0  0  0  0  0
  -39.7741   57.6189   62.5533 C   0  0  0  0  0  0  0  0  0  0  0  0
  -38.6372   56.8576   61.8719 C   0  0  0  0  0  0  0  0  0  0  0  0
  -36.2348   57.7885   61.2101 C   0  0  0  0  0  0  0  0  0  0  0  0
  -37.7714   57.8767   61.1291 C   0  0  0  0  0  0  0  0  0  0  0  0
  -35.5219   56.7753   62.1188 C   0  0  0  0  0  0  0  0  0  0  0  0
  -35.1156   57.5209   63.3984 C   0  0  0  0  0  0  0  0  0  0  0  0
  -33.6582   57.9734   63.6549 C   0  0  0  0  0  0  0  0  0  0  0  0
  -32.5391   57.7322   62.6229 C   0  0  0  0  0  0  0  0  0  0  0  0
  -31.0252   59.6899   62.0711 C   0  0  0  0  0  0  0  0  0  0  0  0
  -32.3781   59.0236   61.8092 C   0  0  0  0  0  0  0  0  0  0  0  0
  -37.6051   60.2112   64.0493 C   0  0  0  0  0  0  0  0  0  0  0  0
  -36.2755   60.3559   64.8269 C   0  0  0  0  0  0  0  0  0  0  0  0
  -34.8705   63.7827   64.6315 C   0  0  0  0  0  0  0  0  0  0  0  0
  -35.2513   64.3285   65.8646 C   0  0  0  0  0  0  0  0  0  0  0  0
  -35.2142   62.4656   64.3045 C   0  0  0  0  0  0  0  0  0  0  0  0
  -35.9793   63.5367   66.7524 C   0  0  0  0  0  0  0  0  0  0  0  0
  -36.3249   62.2286   66.4173 C   0  0  0  0  0  0  0  0  0  0  0  0
  -35.9734   61.6787   65.1779 C   0  0  0  0  0  0  0  0  0  0  0  0
  -36.3831   63.9889   67.9649 O   0  0  0  0  0  0  0  0  0  0  0  0
  -37.0444   61.4940   67.3141 O   0  0  0  0  0  0  0  0  0  0  0  0
  -36.1736   64.8620   68.2329 H   0  0  0  0  0  0  0  0  0  0  0  0
  -37.2783   61.8642   68.1425 H   0  0  0  0  0  0  0  0  0  0  0  0
 12 13  1  0  0  0
  9 10  2  0  0  0
  9  8  1  0  0  0
  6  7  2  0  0  0
  6  8  1  0  0  0
 10 11  1  0  0  0
  7  5  1  0  0  0
 16 17  2  0  0  0
 16 18  1  0  0  0
 17 19  1  0  0  0
 18 21  2  0  0  0
 13 11  1  0  0  0
  5  4  1  0  0  0
  4  3  1  0  0  0
  3  2  1  0  0  0
  2  1  1  0  0  0
  1 14  1  0  0  0
 14 15  1  0  0  0
 15 21  1  0  0  0
 19 20  2  0  0  0
 19 22  1  0  0  0
 20 21  1  0  0  0
 20 23  1  0  0  0
 22 24  1  0  0  0
 23 25  1  0  0  0
M  END
> <minimizedAffinity>
-7.53919

> <CNNscore>
0.3785510957

> <CNNaffinity>
6.1407761574

> <CNN_VS>
2.3245975971

> <CNNaffinity_variance>
0.1728294939

$$$$
