


 37 36  0  0  0  0  0  0  0  0999 V2000
  -42.2585   57.9208   65.9134 O   0  0  0  0  0  0  0  0  0  0  0  0
  -43.0018   58.7411   65.4687 C   0  0  0  0  0  0  0  0  0  0  0  0
  -44.2658   58.4294   64.7365 C   0  0  0  0  0  0  0  0  0  0  0  0
  -44.9254   57.1496   65.2145 C   0  0  0  0  0  0  0  0  0  0  0  0
  -46.2416   57.3934   65.9207 C   0  0  0  0  0  0  0  0  0  0  0  0
  -47.2212   58.2414   65.1441 C   0  0  0  0  0  0  0  0  0  0  0  0
  -48.4778   57.5111   64.7445 C   0  0  0  0  0  0  0  0  0  0  0  0
  -49.7190   58.1613   65.2940 C   0  0  0  0  0  0  0  0  0  0  0  0
  -49.7961   59.6495   65.1228 C   0  0  0  0  0  0  0  0  0  0  0  0
  -51.0368   60.0981   64.4742 C   0  0  0  0  0  0  0  0  0  0  0  0
  -51.3138   60.1243   63.1892 C   0  0  0  0  0  0  0  0  0  0  0  0
  -50.4545   59.6866   62.0602 C   0  0  0  0  0  0  0  0  0  0  0  0
  -50.5763   58.2265   61.6746 C   0  0  0  0  0  0  0  0  0  0  0  0
  -49.2931   57.6595   61.1324 C   0  0  0  0  0  0  0  0  0  0  0  0
  -49.4384   56.3353   60.4273 C   0  0  0  0  0  0  0  0  0  0  0  0
  -48.8933   56.3648   59.0164 C   0  0  0  0  0  0  0  0  0  0  0  0
  -47.3962   56.2753   58.9138 C   0  0  0  0  0  0  0  0  0  0  0  0
  -46.9384   55.5277   57.7261 C   0  0  0  0  0  0  0  0  0  0  0  0
  -46.8434   56.3518   56.5228 C   0  0  0  0  0  0  0  0  0  0  0  0
  -42.7968   60.0550   65.5601 O   0  0  0  0  0  0  0  0  0  0  0  0
  -41.7187   60.5050   66.4106 C   0  0  0  0  0  0  0  0  0  0  0  0
  -40.7091   61.1926   65.5204 C   0  0  0  0  0  0  0  0  0  0  0  0
  -40.4932   62.5247   65.9860 O   0  0  0  0  0  0  0  0  0  0  0  0
  -40.1062   62.4978   66.8750 H   0  0  0  0  0  0  0  0  0  0  0  0
  -39.3711   60.5013   65.4193 C   0  0  0  0  0  0  0  0  0  0  0  0
  -38.3935   61.2876   66.1300 O   0  0  0  0  0  0  0  0  0  0  0  0
  -37.0539   61.7284   65.3949 P   0  0  0  0  0  0  0  0  0  0  0  0
  -37.4363   62.2187   64.0554 O   0  0  0  0  0  0  0  0  0  0  0  0
  -36.3394   62.6344   66.3156 O   0  0  0  0  0  0  0  0  0  0  0  0
  -36.8676   63.4360   66.4551 H   0  0  0  0  0  0  0  0  0  0  0  0
  -36.1462   60.4411   65.2055 O   0  0  0  0  0  0  0  0  0  0  0  0
  -35.7539   60.0296   63.8749 C   0  0  0  0  0  0  0  0  0  0  0  0
  -36.1499   58.5752   63.7577 C   0  0  0  0  0  0  0  0  0  0  0  0
  -37.2247   58.2543   62.7382 N   0  0  0  0  0  0  0  0  0  0  0  0
  -37.6859   59.4898   62.0341 C   0  0  0  0  0  0  0  0  0  0  0  0
  -38.3966   57.6309   63.4263 C   0  0  0  0  0  0  0  0  0  0  0  0
  -36.6827   57.2985   61.7223 C   0  0  0  0  0  0  0  0  0  0  0  0
 34 33  1  0  0  0
 34 35  1  0  0  0
 34 36  1  0  0  0
 34 37  1  0  0  0
 22 23  1  0  0  0
 22 25  1  0  0  0
 22 21  1  0  0  0
 27 26  1  0  0  0
 27 28  2  0  0  0
 27 31  1  0  0  0
 27 29  1  0  0  0
 25 26  1  0  0  0
 32 33  1  0  0  0
 32 31  1  0  0  0
 20 21  1  0  0  0
 20  2  1  0  0  0
  1  2  2  0  0  0
  2  3  1  0  0  0
  3  4  1  0  0  0
  4  5  1  0  0  0
  5  6  1  0  0  0
  6  7  1  0  0  0
  7  8  1  0  0  0
  8  9  1  0  0  0
  9 10  1  0  0  0
 10 11  2  0  0  0
 11 12  1  0  0  0
 12 13  1  0  0  0
 13 14  1  0  0  0
 14 15  1  0  0  0
 15 16  1  0  0  0
 16 17  1  0  0  0
 17 18  1  0  0  0
 18 19  1  0  0  0
 23 24  1  0  0  0
 29 30  1  0  0  0
M  CHG 1  28  -1
M  END
> <minimizedAffinity>
-8.30298

> <CNNscore>
0.9189504385

> <CNNaffinity>
7.1972603798

> <CNN_VS>
6.6139254570

> <CNNaffinity_variance>
0.4295437932

$$$$



 37 36  0  0  0  0  0  0  0  0999 V2000
  -43.3351   59.9536   64.6815 O   0  0  0  0  0  0  0  0  0  0  0  0
  -42.8605   59.0542   65.3050 C   0  0  0  0  0  0  0  0  0  0  0  0
  -43.4764   57.7001   65.4397 C   0  0  0  0  0  0  0  0  0  0  0  0
  -44.9607   57.6923   65.1261 C   0  0  0  0  0  0  0  0  0  0  0  0
  -45.8126   58.1315   66.2973 C   0  0  0  0  0  0  0  0  0  0  0  0
  -46.7207   59.3031   66.0064 C   0  0  0  0  0  0  0  0  0  0  0  0
  -47.6968   59.0550   64.8849 C   0  0  0  0  0  0  0  0  0  0  0  0
  -48.5577   57.8450   65.1303 C   0  0  0  0  0  0  0  0  0  0  0  0
  -50.0357   58.1004   65.1540 C   0  0  0  0  0  0  0  0  0  0  0  0
  -50.3800   59.5294   65.1755 C   0  0  0  0  0  0  0  0  0  0  0  0
  -50.9040   60.2497   64.2084 C   0  0  0  0  0  0  0  0  0  0  0  0
  -51.3054   59.8024   62.8507 C   0  0  0  0  0  0  0  0  0  0  0  0
  -50.1731   59.6261   61.8597 C   0  0  0  0  0  0  0  0  0  0  0  0
  -49.8510   58.1807   61.5963 C   0  0  0  0  0  0  0  0  0  0  0  0
  -50.7891   57.4912   60.6390 C   0  0  0  0  0  0  0  0  0  0  0  0
  -50.2068   57.3572   59.2492 C   0  0  0  0  0  0  0  0  0  0  0  0
  -48.7056   57.3997   59.1846 C   0  0  0  0  0  0  0  0  0  0  0  0
  -48.1449   56.5444   58.1201 C   0  0  0  0  0  0  0  0  0  0  0  0
  -47.0317   55.7115   58.5710 C   0  0  0  0  0  0  0  0  0  0  0  0
  -41.7122   59.1418   65.9762 O   0  0  0  0  0  0  0  0  0  0  0  0
  -41.3346   60.4398   66.4867 C   0  0  0  0  0  0  0  0  0  0  0  0
  -40.3524   61.0343   65.5037 C   0  0  0  0  0  0  0  0  0  0  0  0
  -40.1797   62.4234   65.7844 O   0  0  0  0  0  0  0  0  0  0  0  0
  -39.7885   62.5290   66.6657 H   0  0  0  0  0  0  0  0  0  0  0  0
  -38.9921   60.3801   65.4851 C   0  0  0  0  0  0  0  0  0  0  0  0
  -38.0923   61.1696   66.2888 O   0  0  0  0  0  0  0  0  0  0  0  0
  -36.8045   61.8197   65.6191 P   0  0  0  0  0  0  0  0  0  0  0  0
  -35.8536   60.7214   65.3536 O   0  0  0  0  0  0  0  0  0  0  0  0
  -37.2800   62.6475   64.4932 O   0  0  0  0  0  0  0  0  0  0  0  0
  -37.6944   62.0784   63.8259 H   0  0  0  0  0  0  0  0  0  0  0  0
  -36.1393   62.8003   66.6740 O   0  0  0  0  0  0  0  0  0  0  0  0
  -34.7248   63.0929   66.5888 C   0  0  0  0  0  0  0  0  0  0  0  0
  -34.6222   64.4579   65.9471 C   0  0  0  0  0  0  0  0  0  0  0  0
  -33.8682   64.5250   64.6338 N   0  0  0  0  0  0  0  0  0  0  0  0
  -33.3371   63.1820   64.2480 C   0  0  0  0  0  0  0  0  0  0  0  0
  -32.7198   65.4734   64.7644 C   0  0  0  0  0  0  0  0  0  0  0  0
  -34.7851   65.0056   63.5533 C   0  0  0  0  0  0  0  0  0  0  0  0
 34 33  1  0  0  0
 34 35  1  0  0  0
 34 36  1  0  0  0
 34 37  1  0  0  0
 22 23  1  0  0  0
 22 25  1  0  0  0
 22 21  1  0  0  0
 27 26  1  0  0  0
 27 28  2  0  0  0
 27 31  1  0  0  0
 27 29  1  0  0  0
 25 26  1  0  0  0
 32 33  1  0  0  0
 32 31  1  0  0  0
 20 21  1  0  0  0
 20  2  1  0  0  0
  1  2  2  0  0  0
  2  3  1  0  0  0
  3  4  1  0  0  0
  4  5  1  0  0  0
  5  6  1  0  0  0
  6  7  1  0  0  0
  7  8  1  0  0  0
  8  9  1  0  0  0
  9 10  1  0  0  0
 10 11  2  0  0  0
 11 12  1  0  0  0
 12 13  1  0  0  0
 13 14  1  0  0  0
 14 15  1  0  0  0
 15 16  1  0  0  0
 16 17  1  0  0  0
 17 18  1  0  0  0
 18 19  1  0  0  0
 23 24  1  0  0  0
 29 30  1  0  0  0
M  CHG 1  28  -1
M  END
> <minimizedAffinity>
-8.29076

> <CNNscore>
0.8949046135

> <CNNaffinity>
6.5727720261

> <CNN_VS>
5.8820037842

> <CNNaffinity_variance>
0.2440880239

$$$$



 37 36  0  0  0  0  0  0  0  0999 V2000
  -42.0204   57.9649   66.2045 O   0  0  0  0  0  0  0  0  0  0  0  0
  -42.6720   58.8554   65.7515 C   0  0  0  0  0  0  0  0  0  0  0  0
  -43.8781   58.6684   64.8904 C   0  0  0  0  0  0  0  0  0  0  0  0
  -45.0184   59.5980   65.2606 C   0  0  0  0  0  0  0  0  0  0  0  0
  -45.7723   59.1444   66.4920 C   0  0  0  0  0  0  0  0  0  0  0  0
  -46.9653   58.2629   66.2064 C   0  0  0  0  0  0  0  0  0  0  0  0
  -47.6778   58.5978   64.9209 C   0  0  0  0  0  0  0  0  0  0  0  0
  -48.9415   57.8003   64.7404 C   0  0  0  0  0  0  0  0  0  0  0  0
  -50.1848   58.4295   65.2957 C   0  0  0  0  0  0  0  0  0  0  0  0
  -50.3946   59.8101   64.8363 C   0  0  0  0  0  0  0  0  0  0  0  0
  -50.8625   60.2139   63.6758 C   0  0  0  0  0  0  0  0  0  0  0  0
  -51.3220   59.3808   62.5361 C   0  0  0  0  0  0  0  0  0  0  0  0
  -50.2375   58.9238   61.5820 C   0  0  0  0  0  0  0  0  0  0  0  0
  -50.6171   57.6827   60.8219 C   0  0  0  0  0  0  0  0  0  0  0  0
  -49.6805   57.3221   59.6974 C   0  0  0  0  0  0  0  0  0  0  0  0
  -48.8943   56.0602   59.9773 C   0  0  0  0  0  0  0  0  0  0  0  0
  -48.0248   55.5913   58.8442 C   0  0  0  0  0  0  0  0  0  0  0  0
  -46.8637   56.4697   58.6003 C   0  0  0  0  0  0  0  0  0  0  0  0
  -46.8634   57.0750   57.2700 C   0  0  0  0  0  0  0  0  0  0  0  0
  -42.4032   60.1460   65.9487 O   0  0  0  0  0  0  0  0  0  0  0  0
  -41.1515   60.4767   66.5906 C   0  0  0  0  0  0  0  0  0  0  0  0
  -40.2673   61.1076   65.5396 C   0  0  0  0  0  0  0  0  0  0  0  0
  -40.0631   62.4852   65.8537 O   0  0  0  0  0  0  0  0  0  0  0  0
  -39.5877   62.5577   66.6961 H   0  0  0  0  0  0  0  0  0  0  0  0
  -38.9177   60.4546   65.3644 C   0  0  0  0  0  0  0  0  0  0  0  0
  -37.9854   61.0777   66.2707 O   0  0  0  0  0  0  0  0  0  0  0  0
  -36.7171   61.8426   65.6912 P   0  0  0  0  0  0  0  0  0  0  0  0
  -35.6705   60.8279   65.4545 O   0  0  0  0  0  0  0  0  0  0  0  0
  -37.1928   62.6628   64.5598 O   0  0  0  0  0  0  0  0  0  0  0  0
  -37.5243   62.0826   63.8567 H   0  0  0  0  0  0  0  0  0  0  0  0
  -36.1893   62.8413   66.8052 O   0  0  0  0  0  0  0  0  0  0  0  0
  -34.7980   63.2385   66.8113 C   0  0  0  0  0  0  0  0  0  0  0  0
  -34.6622   64.2873   65.7309 C   0  0  0  0  0  0  0  0  0  0  0  0
  -33.3515   64.2980   64.9695 N   0  0  0  0  0  0  0  0  0  0  0  0
  -33.3185   65.4082   63.9689 C   0  0  0  0  0  0  0  0  0  0  0  0
  -33.1816   62.9995   64.2481 C   0  0  0  0  0  0  0  0  0  0  0  0
  -32.2167   64.4831   65.9273 C   0  0  0  0  0  0  0  0  0  0  0  0
 34 33  1  0  0  0
 34 35  1  0  0  0
 34 36  1  0  0  0
 34 37  1  0  0  0
 22 23  1  0  0  0
 22 25  1  0  0  0
 22 21  1  0  0  0
 27 26  1  0  0  0
 27 28  2  0  0  0
 27 31  1  0  0  0
 27 29  1  0  0  0
 25 26  1  0  0  0
 32 33  1  0  0  0
 32 31  1  0  0  0
 20 21  1  0  0  0
 20  2  1  0  0  0
  1  2  2  0  0  0
  2  3  1  0  0  0
  3  4  1  0  0  0
  4  5  1  0  0  0
  5  6  1  0  0  0
  6  7  1  0  0  0
  7  8  1  0  0  0
  8  9  1  0  0  0
  9 10  1  0  0  0
 10 11  2  0  0  0
 11 12  1  0  0  0
 12 13  1  0  0  0
 13 14  1  0  0  0
 14 15  1  0  0  0
 15 16  1  0  0  0
 16 17  1  0  0  0
 17 18  1  0  0  0
 18 19  1  0  0  0
 23 24  1  0  0  0
 29 30  1  0  0  0
M  CHG 1  28  -1
M  END
> <minimizedAffinity>
-8.26398

> <CNNscore>
0.8660082817

> <CNNaffinity>
6.5178389549

> <CNN_VS>
5.6445026398

> <CNNaffinity_variance>
0.3100476861

$$$$



 37 36  0  0  0  0  0  0  0  0999 V2000
  -41.9545   58.1234   65.7934 O   0  0  0  0  0  0  0  0  0  0  0  0
  -42.7529   58.9545   65.4852 C   0  0  0  0  0  0  0  0  0  0  0  0
  -43.9769   58.6912   64.6705 C   0  0  0  0  0  0  0  0  0  0  0  0
  -44.7967   57.5275   65.1951 C   0  0  0  0  0  0  0  0  0  0  0  0
  -45.9751   57.9687   66.0361 C   0  0  0  0  0  0  0  0  0  0  0  0
  -46.5036   59.3436   65.7010 C   0  0  0  0  0  0  0  0  0  0  0  0
  -47.6797   59.3323   64.7581 C   0  0  0  0  0  0  0  0  0  0  0  0
  -48.3991   58.0102   64.7536 C   0  0  0  0  0  0  0  0  0  0  0  0
  -49.8727   58.0780   65.0254 C   0  0  0  0  0  0  0  0  0  0  0  0
  -50.3777   59.4519   65.1609 C   0  0  0  0  0  0  0  0  0  0  0  0
  -50.9194   60.2097   64.2330 C   0  0  0  0  0  0  0  0  0  0  0  0
  -51.1828   59.8672   62.8125 C   0  0  0  0  0  0  0  0  0  0  0  0
  -50.0207   60.0776   61.8636 C   0  0  0  0  0  0  0  0  0  0  0  0
  -49.9192   58.9987   60.8206 C   0  0  0  0  0  0  0  0  0  0  0  0
  -49.5154   57.6468   61.3507 C   0  0  0  0  0  0  0  0  0  0  0  0
  -48.7585   56.8246   60.3310 C   0  0  0  0  0  0  0  0  0  0  0  0
  -48.8492   57.3287   58.9176 C   0  0  0  0  0  0  0  0  0  0  0  0
  -47.6960   56.9344   58.0846 C   0  0  0  0  0  0  0  0  0  0  0  0
  -48.0753   56.2000   56.8792 C   0  0  0  0  0  0  0  0  0  0  0  0
  -42.6533   60.2401   65.8230 O   0  0  0  0  0  0  0  0  0  0  0  0
  -41.5181   60.6334   66.6259 C   0  0  0  0  0  0  0  0  0  0  0  0
  -40.5164   61.2749   65.6934 C   0  0  0  0  0  0  0  0  0  0  0  0
  -40.3908   62.6612   66.0104 O   0  0  0  0  0  0  0  0  0  0  0  0
  -40.0351   62.7567   66.9077 H   0  0  0  0  0  0  0  0  0  0  0  0
  -39.1397   60.6562   65.7113 C   0  0  0  0  0  0  0  0  0  0  0  0
  -38.2342   61.5313   65.0092 O   0  0  0  0  0  0  0  0  0  0  0  0
  -36.7522   61.7286   65.5516 P   0  0  0  0  0  0  0  0  0  0  0  0
  -36.2869   63.0451   65.0704 O   0  0  0  0  0  0  0  0  0  0  0  0
  -36.7899   61.4657   67.0036 O   0  0  0  0  0  0  0  0  0  0  0  0
  -37.3458   62.1311   67.4384 H   0  0  0  0  0  0  0  0  0  0  0  0
  -35.8326   60.6139   64.8968 O   0  0  0  0  0  0  0  0  0  0  0  0
  -36.1216   60.1394   63.5608 C   0  0  0  0  0  0  0  0  0  0  0  0
  -36.4167   58.6633   63.7005 C   0  0  0  0  0  0  0  0  0  0  0  0
  -37.6416   58.1533   62.9675 N   0  0  0  0  0  0  0  0  0  0  0  0
  -38.6575   57.6168   63.9240 C   0  0  0  0  0  0  0  0  0  0  0  0
  -37.2437   57.0590   62.0297 C   0  0  0  0  0  0  0  0  0  0  0  0
  -38.2609   59.2707   62.1883 C   0  0  0  0  0  0  0  0  0  0  0  0
 34 33  1  0  0  0
 34 35  1  0  0  0
 34 36  1  0  0  0
 34 37  1  0  0  0
 22 23  1  0  0  0
 22 25  1  0  0  0
 22 21  1  0  0  0
 27 26  1  0  0  0
 27 28  2  0  0  0
 27 31  1  0  0  0
 27 29  1  0  0  0
 25 26  1  0  0  0
 32 33  1  0  0  0
 32 31  1  0  0  0
 20 21  1  0  0  0
 20  2  1  0  0  0
  1  2  2  0  0  0
  2  3  1  0  0  0
  3  4  1  0  0  0
  4  5  1  0  0  0
  5  6  1  0  0  0
  6  7  1  0  0  0
  7  8  1  0  0  0
  8  9  1  0  0  0
  9 10  1  0  0  0
 10 11  2  0  0  0
 11 12  1  0  0  0
 12 13  1  0  0  0
 13 14  1  0  0  0
 14 15  1  0  0  0
 15 16  1  0  0  0
 16 17  1  0  0  0
 17 18  1  0  0  0
 18 19  1  0  0  0
 23 24  1  0  0  0
 29 30  1  0  0  0
M  CHG 1  28  -1
M  END
> <minimizedAffinity>
-8.14387

> <CNNscore>
0.8042252064

> <CNNaffinity>
7.0332322121

> <CNN_VS>
5.6563024521

> <CNNaffinity_variance>
0.2555701137

$$$$



 37 36  0  0  0  0  0  0  0  0999 V2000
  -40.7150   61.9505   65.8838 O   0  0  0  0  0  0  0  0  0  0  0  0
  -41.0591   60.8646   65.5296 C   0  0  0  0  0  0  0  0  0  0  0  0
  -41.8570   59.9159   66.3629 C   0  0  0  0  0  0  0  0  0  0  0  0
  -42.1331   58.6003   65.6598 C   0  0  0  0  0  0  0  0  0  0  0  0
  -43.6012   58.3905   65.3577 C   0  0  0  0  0  0  0  0  0  0  0  0
  -44.5091   59.4809   65.8760 C   0  0  0  0  0  0  0  0  0  0  0  0
  -45.8393   59.5541   65.1706 C   0  0  0  0  0  0  0  0  0  0  0  0
  -46.5693   58.2379   65.1838 C   0  0  0  0  0  0  0  0  0  0  0  0
  -47.8040   58.1778   64.3341 C   0  0  0  0  0  0  0  0  0  0  0  0
  -49.0367   57.9812   65.1105 C   0  0  0  0  0  0  0  0  0  0  0  0
  -50.1004   58.7531   65.1484 C   0  0  0  0  0  0  0  0  0  0  0  0
  -50.3426   60.0123   64.4000 C   0  0  0  0  0  0  0  0  0  0  0  0
  -51.2342   59.8867   63.1816 C   0  0  0  0  0  0  0  0  0  0  0  0
  -50.4961   59.3874   61.9700 C   0  0  0  0  0  0  0  0  0  0  0  0
  -50.7338   57.9356   61.6420 C   0  0  0  0  0  0  0  0  0  0  0  0
  -49.5731   57.3091   60.9010 C   0  0  0  0  0  0  0  0  0  0  0  0
  -49.6502   57.4087   59.4030 C   0  0  0  0  0  0  0  0  0  0  0  0
  -48.4042   56.9954   58.7280 C   0  0  0  0  0  0  0  0  0  0  0  0
  -47.9085   55.6937   59.1709 C   0  0  0  0  0  0  0  0  0  0  0  0
  -40.7678   60.3468   64.3363 O   0  0  0  0  0  0  0  0  0  0  0  0
  -40.5544   61.2673   63.2431 C   0  0  0  0  0  0  0  0  0  0  0  0
  -39.5033   60.6546   62.3463 C   0  0  0  0  0  0  0  0  0  0  0  0
  -39.8144   60.9423   60.9830 O   0  0  0  0  0  0  0  0  0  0  0  0
  -39.7779   61.9008   60.8384 H   0  0  0  0  0  0  0  0  0  0  0  0
  -38.0893   61.1078   62.6174 C   0  0  0  0  0  0  0  0  0  0  0  0
  -38.0848   61.9024   63.8206 O   0  0  0  0  0  0  0  0  0  0  0  0
  -36.7323   62.0855   64.6370 P   0  0  0  0  0  0  0  0  0  0  0  0
  -35.9000   63.0468   63.8859 O   0  0  0  0  0  0  0  0  0  0  0  0
  -37.1122   62.3970   66.0290 O   0  0  0  0  0  0  0  0  0  0  0  0
  -37.5801   63.2463   66.0541 H   0  0  0  0  0  0  0  0  0  0  0  0
  -35.9741   60.6921   64.6584 O   0  0  0  0  0  0  0  0  0  0  0  0
  -34.6534   60.6030   65.2429 C   0  0  0  0  0  0  0  0  0  0  0  0
  -33.7260   60.2165   64.1132 C   0  0  0  0  0  0  0  0  0  0  0  0
  -33.3418   58.7524   64.0339 N   0  0  0  0  0  0  0  0  0  0  0  0
  -34.3526   57.9712   63.2575 C   0  0  0  0  0  0  0  0  0  0  0  0
  -33.2547   58.1827   65.4135 C   0  0  0  0  0  0  0  0  0  0  0  0
  -32.0126   58.6187   63.3595 C   0  0  0  0  0  0  0  0  0  0  0  0
 34 33  1  0  0  0
 34 35  1  0  0  0
 34 36  1  0  0  0
 34 37  1  0  0  0
 22 23  1  0  0  0
 22 25  1  0  0  0
 22 21  1  0  0  0
 27 26  1  0  0  0
 27 28  2  0  0  0
 27 31  1  0  0  0
 27 29  1  0  0  0
 25 26  1  0  0  0
 32 33  1  0  0  0
 32 31  1  0  0  0
 20 21  1  0  0  0
 20  2  1  0  0  0
  1  2  2  0  0  0
  2  3  1  0  0  0
  3  4  1  0  0  0
  4  5  1  0  0  0
  5  6  1  0  0  0
  6  7  1  0  0  0
  7  8  1  0  0  0
  8  9  1  0  0  0
  9 10  1  0  0  0
 10 11  2  0  0  0
 11 12  1  0  0  0
 12 13  1  0  0  0
 13 14  1  0  0  0
 14 15  1  0  0  0
 15 16  1  0  0  0
 16 17  1  0  0  0
 17 18  1  0  0  0
 18 19  1  0  0  0
 23 24  1  0  0  0
 29 30  1  0  0  0
M  CHG 1  28  -1
M  END
> <minimizedAffinity>
-8.00432

> <CNNscore>
0.7792326212

> <CNNaffinity>
6.5346617699

> <CNN_VS>
5.0920214653

> <CNNaffinity_variance>
0.3497458696

$$$$



 37 36  0  0  0  0  0  0  0  0999 V2000
  -42.7927   56.9040   65.8646 O   0  0  0  0  0  0  0  0  0  0  0  0
  -43.2651   57.9096   65.4303 C   0  0  0  0  0  0  0  0  0  0  0  0
  -44.5829   57.9928   64.7321 C   0  0  0  0  0  0  0  0  0  0  0  0
  -45.3854   59.2177   65.1287 C   0  0  0  0  0  0  0  0  0  0  0  0
  -46.8022   58.8848   65.5438 C   0  0  0  0  0  0  0  0  0  0  0  0
  -47.6833   58.3892   64.4214 C   0  0  0  0  0  0  0  0  0  0  0  0
  -48.9374   57.6966   64.8904 C   0  0  0  0  0  0  0  0  0  0  0  0
  -49.9635   58.6629   65.4185 C   0  0  0  0  0  0  0  0  0  0  0  0
  -50.0218   59.9875   64.7169 C   0  0  0  0  0  0  0  0  0  0  0  0
  -51.2068   60.1419   63.8607 C   0  0  0  0  0  0  0  0  0  0  0  0
  -51.3537   59.7695   62.6084 C   0  0  0  0  0  0  0  0  0  0  0  0
  -50.3693   59.0757   61.7400 C   0  0  0  0  0  0  0  0  0  0  0  0
  -50.7289   57.6567   61.3493 C   0  0  0  0  0  0  0  0  0  0  0  0
  -50.1085   57.2381   60.0447 C   0  0  0  0  0  0  0  0  0  0  0  0
  -49.1824   56.0528   60.1397 C   0  0  0  0  0  0  0  0  0  0  0  0
  -47.9365   56.2191   59.2978 C   0  0  0  0  0  0  0  0  0  0  0  0
  -48.0996   57.1036   58.0933 C   0  0  0  0  0  0  0  0  0  0  0  0
  -47.0897   56.8522   57.0463 C   0  0  0  0  0  0  0  0  0  0  0  0
  -47.1146   55.4840   56.5328 C   0  0  0  0  0  0  0  0  0  0  0  0
  -42.6708   59.1004   65.5041 O   0  0  0  0  0  0  0  0  0  0  0  0
  -41.3858   59.1657   66.1618 C   0  0  0  0  0  0  0  0  0  0  0  0
  -40.4139   59.7734   65.1767 C   0  0  0  0  0  0  0  0  0  0  0  0
  -41.1344   60.3151   64.0696 O   0  0  0  0  0  0  0  0  0  0  0  0
  -41.7051   61.0366   64.3771 H   0  0  0  0  0  0  0  0  0  0  0  0
  -39.5250   60.8551   65.7408 C   0  0  0  0  0  0  0  0  0  0  0  0
  -38.1630   60.3821   65.7296 O   0  0  0  0  0  0  0  0  0  0  0  0
  -37.0098   61.3191   65.1626 P   0  0  0  0  0  0  0  0  0  0  0  0
  -37.1690   61.3618   63.6950 O   0  0  0  0  0  0  0  0  0  0  0  0
  -37.0672   62.5792   65.9294 O   0  0  0  0  0  0  0  0  0  0  0  0
  -37.9109   63.0251   65.7558 H   0  0  0  0  0  0  0  0  0  0  0  0
  -35.6141   60.6370   65.4850 O   0  0  0  0  0  0  0  0  0  0  0  0
  -34.4617   61.4632   65.7733 C   0  0  0  0  0  0  0  0  0  0  0  0
  -33.8528   61.8067   64.4329 C   0  0  0  0  0  0  0  0  0  0  0  0
  -33.5665   63.2743   64.1842 N   0  0  0  0  0  0  0  0  0  0  0  0
  -33.5652   64.0476   65.4636 C   0  0  0  0  0  0  0  0  0  0  0  0
  -34.6157   63.8429   63.2834 C   0  0  0  0  0  0  0  0  0  0  0  0
  -32.2262   63.4207   63.5351 C   0  0  0  0  0  0  0  0  0  0  0  0
 34 33  1  0  0  0
 34 35  1  0  0  0
 34 36  1  0  0  0
 34 37  1  0  0  0
 22 23  1  0  0  0
 22 25  1  0  0  0
 22 21  1  0  0  0
 27 26  1  0  0  0
 27 28  2  0  0  0
 27 31  1  0  0  0
 27 29  1  0  0  0
 25 26  1  0  0  0
 32 33  1  0  0  0
 32 31  1  0  0  0
 20 21  1  0  0  0
 20  2  1  0  0  0
  1  2  2  0  0  0
  2  3  1  0  0  0
  3  4  1  0  0  0
  4  5  1  0  0  0
  5  6  1  0  0  0
  6  7  1  0  0  0
  7  8  1  0  0  0
  8  9  1  0  0  0
  9 10  1  0  0  0
 10 11  2  0  0  0
 11 12  1  0  0  0
 12 13  1  0  0  0
 13 14  1  0  0  0
 14 15  1  0  0  0
 15 16  1  0  0  0
 16 17  1  0  0  0
 17 18  1  0  0  0
 18 19  1  0  0  0
 23 24  1  0  0  0
 29 30  1  0  0  0
M  CHG 1  28  -1
M  END
> <minimizedAffinity>
-8.12530

> <CNNscore>
0.7766558528

> <CNNaffinity>
6.3815021515

> <CNN_VS>
4.9562311172

> <CNNaffinity_variance>
0.4481114447

$$$$



 37 36  0  0  0  0  0  0  0  0999 V2000
  -42.5276   60.1890   66.9315 O   0  0  0  0  0  0  0  0  0  0  0  0
  -42.3361   60.0266   65.7654 C   0  0  0  0  0  0  0  0  0  0  0  0
  -43.4005   59.6949   64.7712 C   0  0  0  0  0  0  0  0  0  0  0  0
  -44.1714   58.4380   65.1281 C   0  0  0  0  0  0  0  0  0  0  0  0
  -45.5397   58.7300   65.7050 C   0  0  0  0  0  0  0  0  0  0  0  0
  -46.5812   57.6761   65.4108 C   0  0  0  0  0  0  0  0  0  0  0  0
  -47.7098   58.1605   64.5370 C   0  0  0  0  0  0  0  0  0  0  0  0
  -48.8742   58.6784   65.3378 C   0  0  0  0  0  0  0  0  0  0  0  0
  -49.3878   60.0273   64.9291 C   0  0  0  0  0  0  0  0  0  0  0  0
  -50.7592   59.9932   64.4007 C   0  0  0  0  0  0  0  0  0  0  0  0
  -51.1421   60.0148   63.1431 C   0  0  0  0  0  0  0  0  0  0  0  0
  -50.2887   60.0563   61.9289 C   0  0  0  0  0  0  0  0  0  0  0  0
  -49.6847   58.7317   61.5095 C   0  0  0  0  0  0  0  0  0  0  0  0
  -50.7224   57.6701   61.2681 C   0  0  0  0  0  0  0  0  0  0  0  0
  -50.3734   56.6839   60.1830 C   0  0  0  0  0  0  0  0  0  0  0  0
  -49.5705   57.3101   59.0641 C   0  0  0  0  0  0  0  0  0  0  0  0
  -48.3460   56.5399   58.6554 C   0  0  0  0  0  0  0  0  0  0  0  0
  -48.0671   56.6168   57.2078 C   0  0  0  0  0  0  0  0  0  0  0  0
  -47.2898   55.4854   56.7058 C   0  0  0  0  0  0  0  0  0  0  0  0
  -41.1359   60.1122   65.1917 O   0  0  0  0  0  0  0  0  0  0  0  0
  -40.3399   58.9080   65.1262 C   0  0  0  0  0  0  0  0  0  0  0  0
  -39.4315   59.0419   63.9256 C   0  0  0  0  0  0  0  0  0  0  0  0
  -39.8188   60.1832   63.1605 O   0  0  0  0  0  0  0  0  0  0  0  0
  -39.6962   60.9854   63.6919 H   0  0  0  0  0  0  0  0  0  0  0  0
  -37.9615   59.1611   64.2470 C   0  0  0  0  0  0  0  0  0  0  0  0
  -37.8113   60.0168   65.3976 O   0  0  0  0  0  0  0  0  0  0  0  0
  -36.9557   61.3522   65.2783 P   0  0  0  0  0  0  0  0  0  0  0  0
  -36.2122   61.2775   64.0044 O   0  0  0  0  0  0  0  0  0  0  0  0
  -37.8850   62.4767   65.5039 O   0  0  0  0  0  0  0  0  0  0  0  0
  -38.5475   62.4958   64.7956 H   0  0  0  0  0  0  0  0  0  0  0  0
  -35.8999   61.3715   66.4623 O   0  0  0  0  0  0  0  0  0  0  0  0
  -35.3669   62.6337   66.9275 C   0  0  0  0  0  0  0  0  0  0  0  0
  -33.9316   62.6764   66.4545 C   0  0  0  0  0  0  0  0  0  0  0  0
  -33.5690   63.8121   65.5182 N   0  0  0  0  0  0  0  0  0  0  0  0
  -34.7763   64.6126   65.1489 C   0  0  0  0  0  0  0  0  0  0  0  0
  -32.9636   63.2567   64.2691 C   0  0  0  0  0  0  0  0  0  0  0  0
  -32.5812   64.7164   66.1860 C   0  0  0  0  0  0  0  0  0  0  0  0
 34 33  1  0  0  0
 34 35  1  0  0  0
 34 36  1  0  0  0
 34 37  1  0  0  0
 22 23  1  0  0  0
 22 25  1  0  0  0
 22 21  1  0  0  0
 27 26  1  0  0  0
 27 28  2  0  0  0
 27 31  1  0  0  0
 27 29  1  0  0  0
 25 26  1  0  0  0
 32 33  1  0  0  0
 32 31  1  0  0  0
 20 21  1  0  0  0
 20  2  1  0  0  0
  1  2  2  0  0  0
  2  3  1  0  0  0
  3  4  1  0  0  0
  4  5  1  0  0  0
  5  6  1  0  0  0
  6  7  1  0  0  0
  7  8  1  0  0  0
  8  9  1  0  0  0
  9 10  1  0  0  0
 10 11  2  0  0  0
 11 12  1  0  0  0
 12 13  1  0  0  0
 13 14  1  0  0  0
 14 15  1  0  0  0
 15 16  1  0  0  0
 16 17  1  0  0  0
 17 18  1  0  0  0
 18 19  1  0  0  0
 23 24  1  0  0  0
 29 30  1  0  0  0
M  CHG 1  28  -1
M  END
> <minimizedAffinity>
-7.86926

> <CNNscore>
0.7360082269

> <CNNaffinity>
6.4794516563

> <CNN_VS>
4.7689299583

> <CNNaffinity_variance>
0.6498562694

$$$$



 37 36  0  0  0  0  0  0  0  0999 V2000
  -42.5152   57.5423   66.0353 O   0  0  0  0  0  0  0  0  0  0  0  0
  -42.7212   58.6698   65.7047 C   0  0  0  0  0  0  0  0  0  0  0  0
  -43.8035   59.0922   64.7659 C   0  0  0  0  0  0  0  0  0  0  0  0
  -44.9413   58.0918   64.6875 C   0  0  0  0  0  0  0  0  0  0  0  0
  -46.1940   58.5680   65.3907 C   0  0  0  0  0  0  0  0  0  0  0  0
  -47.4236   58.6170   64.5146 C   0  0  0  0  0  0  0  0  0  0  0  0
  -48.4722   57.5964   64.8768 C   0  0  0  0  0  0  0  0  0  0  0  0
  -49.8144   58.2226   65.1448 C   0  0  0  0  0  0  0  0  0  0  0  0
  -49.9263   59.6782   64.7997 C   0  0  0  0  0  0  0  0  0  0  0  0
  -51.0787   59.9865   63.9407 C   0  0  0  0  0  0  0  0  0  0  0  0
  -51.2019   59.7808   62.6480 C   0  0  0  0  0  0  0  0  0  0  0  0
  -50.2182   59.1627   61.7235 C   0  0  0  0  0  0  0  0  0  0  0  0
  -50.5476   57.7573   61.2636 C   0  0  0  0  0  0  0  0  0  0  0  0
  -49.7595   57.3426   60.0515 C   0  0  0  0  0  0  0  0  0  0  0  0
  -49.1839   55.9513   60.1207 C   0  0  0  0  0  0  0  0  0  0  0  0
  -48.2213   55.6632   58.9897 C   0  0  0  0  0  0  0  0  0  0  0  0
  -47.2401   56.7639   58.6973 C   0  0  0  0  0  0  0  0  0  0  0  0
  -46.9812   56.9441   57.2552 C   0  0  0  0  0  0  0  0  0  0  0  0
  -47.6667   55.9636   56.4157 C   0  0  0  0  0  0  0  0  0  0  0  0
  -42.0018   59.7097   66.1266 O   0  0  0  0  0  0  0  0  0  0  0  0
  -40.6958   59.9006   65.5384 C   0  0  0  0  0  0  0  0  0  0  0  0
  -40.6789   61.2871   64.9370 C   0  0  0  0  0  0  0  0  0  0  0  0
  -40.0203   62.1853   65.8300 O   0  0  0  0  0  0  0  0  0  0  0  0
  -39.0940   61.9168   65.9340 H   0  0  0  0  0  0  0  0  0  0  0  0
  -40.0154   61.3888   63.5850 C   0  0  0  0  0  0  0  0  0  0  0  0
  -39.5404   60.0809   63.2074 O   0  0  0  0  0  0  0  0  0  0  0  0
  -38.1930   59.9439   62.3737 P   0  0  0  0  0  0  0  0  0  0  0  0
  -37.9321   58.4999   62.2067 O   0  0  0  0  0  0  0  0  0  0  0  0
  -38.3445   60.7909   61.1742 O   0  0  0  0  0  0  0  0  0  0  0  0
  -39.0612   60.4427   60.6210 H   0  0  0  0  0  0  0  0  0  0  0  0
  -37.0121   60.5593   63.2362 O   0  0  0  0  0  0  0  0  0  0  0  0
  -36.7951   60.0953   64.5895 C   0  0  0  0  0  0  0  0  0  0  0  0
  -36.7743   61.3353   65.4540 C   0  0  0  0  0  0  0  0  0  0  0  0
  -35.4160   61.9669   65.6857 N   0  0  0  0  0  0  0  0  0  0  0  0
  -34.3159   60.9854   65.4382 C   0  0  0  0  0  0  0  0  0  0  0  0
  -35.3210   62.4446   67.0993 C   0  0  0  0  0  0  0  0  0  0  0  0
  -35.2386   63.1284   64.7590 C   0  0  0  0  0  0  0  0  0  0  0  0
 34 33  1  0  0  0
 34 35  1  0  0  0
 34 36  1  0  0  0
 34 37  1  0  0  0
 22 23  1  0  0  0
 22 25  1  0  0  0
 22 21  1  0  0  0
 27 26  1  0  0  0
 27 28  2  0  0  0
 27 31  1  0  0  0
 27 29  1  0  0  0
 25 26  1  0  0  0
 32 33  1  0  0  0
 32 31  1  0  0  0
 20 21  1  0  0  0
 20  2  1  0  0  0
  1  2  2  0  0  0
  2  3  1  0  0  0
  3  4  1  0  0  0
  4  5  1  0  0  0
  5  6  1  0  0  0
  6  7  1  0  0  0
  7  8  1  0  0  0
  8  9  1  0  0  0
  9 10  1  0  0  0
 10 11  2  0  0  0
 11 12  1  0  0  0
 12 13  1  0  0  0
 13 14  1  0  0  0
 14 15  1  0  0  0
 15 16  1  0  0  0
 16 17  1  0  0  0
 17 18  1  0  0  0
 18 19  1  0  0  0
 23 24  1  0  0  0
 29 30  1  0  0  0
M  CHG 1  28  -1
M  END
> <minimizedAffinity>
-8.18357

> <CNNscore>
0.7304608822

> <CNNaffinity>
6.7228240967

> <CNN_VS>
4.9107599258

> <CNNaffinity_variance>
0.3906676173

$$$$



 37 36  0  0  0  0  0  0  0  0999 V2000
  -42.5819   60.4714   67.0979 O   0  0  0  0  0  0  0  0  0  0  0  0
  -42.5755   60.0432   65.9845 C   0  0  0  0  0  0  0  0  0  0  0  0
  -43.8000   59.7968   65.1654 C   0  0  0  0  0  0  0  0  0  0  0  0
  -44.4972   58.4973   65.5212 C   0  0  0  0  0  0  0  0  0  0  0  0
  -45.8471   58.7116   66.1712 C   0  0  0  0  0  0  0  0  0  0  0  0
  -46.7126   59.7457   65.4906 C   0  0  0  0  0  0  0  0  0  0  0  0
  -47.7154   59.1638   64.5271 C   0  0  0  0  0  0  0  0  0  0  0  0
  -48.4622   57.9953   65.1121 C   0  0  0  0  0  0  0  0  0  0  0  0
  -49.9579   58.1019   65.0725 C   0  0  0  0  0  0  0  0  0  0  0  0
  -50.4480   59.4801   65.2196 C   0  0  0  0  0  0  0  0  0  0  0  0
  -51.0142   60.2388   64.3072 C   0  0  0  0  0  0  0  0  0  0  0  0
  -51.3267   59.8935   62.8974 C   0  0  0  0  0  0  0  0  0  0  0  0
  -50.2167   60.1540   61.8997 C   0  0  0  0  0  0  0  0  0  0  0  0
  -49.6704   58.8901   61.2946 C   0  0  0  0  0  0  0  0  0  0  0  0
  -50.6717   57.7711   61.1636 C   0  0  0  0  0  0  0  0  0  0  0  0
  -50.1874   56.6605   60.2576 C   0  0  0  0  0  0  0  0  0  0  0  0
  -49.1180   57.0615   59.2801 C   0  0  0  0  0  0  0  0  0  0  0  0
  -47.9629   56.1424   59.2727 C   0  0  0  0  0  0  0  0  0  0  0  0
  -47.4561   55.8582   57.9315 C   0  0  0  0  0  0  0  0  0  0  0  0
  -41.4659   59.7175   65.3215 O   0  0  0  0  0  0  0  0  0  0  0  0
  -40.9719   60.6592   64.3432 C   0  0  0  0  0  0  0  0  0  0  0  0
  -39.8405   61.4217   64.9936 C   0  0  0  0  0  0  0  0  0  0  0  0
  -40.3753   62.3795   65.9072 O   0  0  0  0  0  0  0  0  0  0  0  0
  -40.8453   61.9191   66.6200 H   0  0  0  0  0  0  0  0  0  0  0  0
  -38.8368   60.5693   65.7314 C   0  0  0  0  0  0  0  0  0  0  0  0
  -37.6220   60.5166   64.9567 O   0  0  0  0  0  0  0  0  0  0  0  0
  -36.6704   61.7896   64.8988 P   0  0  0  0  0  0  0  0  0  0  0  0
  -36.8516   62.4052   63.5686 O   0  0  0  0  0  0  0  0  0  0  0  0
  -36.9531   62.5899   66.1064 O   0  0  0  0  0  0  0  0  0  0  0  0
  -37.8672   62.9129   66.0736 H   0  0  0  0  0  0  0  0  0  0  0  0
  -35.1683   61.2906   65.0079 O   0  0  0  0  0  0  0  0  0  0  0  0
  -34.1270   61.9861   64.2829 C   0  0  0  0  0  0  0  0  0  0  0  0
  -33.5905   63.0334   65.2320 C   0  0  0  0  0  0  0  0  0  0  0  0
  -33.2694   64.3849   64.6253 N   0  0  0  0  0  0  0  0  0  0  0  0
  -32.8091   65.3493   65.6707 C   0  0  0  0  0  0  0  0  0  0  0  0
  -34.4915   64.9408   63.9674 C   0  0  0  0  0  0  0  0  0  0  0  0
  -32.1856   64.2316   63.6049 C   0  0  0  0  0  0  0  0  0  0  0  0
 34 33  1  0  0  0
 34 35  1  0  0  0
 34 36  1  0  0  0
 34 37  1  0  0  0
 22 23  1  0  0  0
 22 25  1  0  0  0
 22 21  1  0  0  0
 27 26  1  0  0  0
 27 28  2  0  0  0
 27 31  1  0  0  0
 27 29  1  0  0  0
 25 26  1  0  0  0
 32 33  1  0  0  0
 32 31  1  0  0  0
 20 21  1  0  0  0
 20  2  1  0  0  0
  1  2  2  0  0  0
  2  3  1  0  0  0
  3  4  1  0  0  0
  4  5  1  0  0  0
  5  6  1  0  0  0
  6  7  1  0  0  0
  7  8  1  0  0  0
  8  9  1  0  0  0
  9 10  1  0  0  0
 10 11  2  0  0  0
 11 12  1  0  0  0
 12 13  1  0  0  0
 13 14  1  0  0  0
 14 15  1  0  0  0
 15 16  1  0  0  0
 16 17  1  0  0  0
 17 18  1  0  0  0
 18 19  1  0  0  0
 23 24  1  0  0  0
 29 30  1  0  0  0
M  CHG 1  28  -1
M  END
> <minimizedAffinity>
-8.06412

> <CNNscore>
0.7019976974

> <CNNaffinity>
6.2832612991

> <CNN_VS>
4.4108347893

> <CNNaffinity_variance>
0.2355909050

$$$$
