


 37 36  0  0  0  0  0  0  0  0999 V2000
  -42.7739   60.0415   63.3621 O   0  0  0  0  0  0  0  0  0  0  0  0
  -43.0333   59.2506   64.2166 C   0  0  0  0  0  0  0  0  0  0  0  0
  -44.2048   58.3245   64.1851 C   0  0  0  0  0  0  0  0  0  0  0  0
  -44.7270   57.9850   65.5684 C   0  0  0  0  0  0  0  0  0  0  0  0
  -46.2369   57.8988   65.6235 C   0  0  0  0  0  0  0  0  0  0  0  0
  -46.9545   58.9933   64.8692 C   0  0  0  0  0  0  0  0  0  0  0  0
  -48.1854   59.5108   65.5688 C   0  0  0  0  0  0  0  0  0  0  0  0
  -49.1448   58.4095   65.9321 C   0  0  0  0  0  0  0  0  0  0  0  0
  -50.5988   58.7457   65.7797 C   0  0  0  0  0  0  0  0  0  0  0  0
  -50.8475   59.8396   64.8296 C   0  0  0  0  0  0  0  0  0  0  0  0
  -51.1030   59.7508   63.5430 C   0  0  0  0  0  0  0  0  0  0  0  0
  -51.2292   58.5220   62.7193 C   0  0  0  0  0  0  0  0  0  0  0  0
  -49.9400   58.0067   62.1130 C   0  0  0  0  0  0  0  0  0  0  0  0
  -50.1670   57.1958   60.8668 C   0  0  0  0  0  0  0  0  0  0  0  0
  -49.9779   57.9551   59.5785 C   0  0  0  0  0  0  0  0  0  0  0  0
  -48.5283   58.0242   59.1515 C   0  0  0  0  0  0  0  0  0  0  0  0
  -47.8433   56.6928   59.0180 C   0  0  0  0  0  0  0  0  0  0  0  0
  -47.2037   56.4973   57.7020 C   0  0  0  0  0  0  0  0  0  0  0  0
  -47.3714   57.6355   56.8006 C   0  0  0  0  0  0  0  0  0  0  0  0
  -42.3106   59.0929   65.3255 O   0  0  0  0  0  0  0  0  0  0  0  0
  -41.1298   59.9123   65.4750 C   0  0  0  0  0  0  0  0  0  0  0  0
  -39.9409   59.0428   65.1363 C   0  0  0  0  0  0  0  0  0  0  0  0
  -39.8043   58.9547   63.7179 O   0  0  0  0  0  0  0  0  0  0  0  0
  -39.6163   59.8347   63.3559 H   0  0  0  0  0  0  0  0  0  0  0  0
  -38.6253   59.5066   65.7130 C   0  0  0  0  0  0  0  0  0  0  0  0
  -37.7251   59.7988   64.6253 O   0  0  0  0  0  0  0  0  0  0  0  0
  -36.8020   61.0920   64.6943 P   0  0  0  0  0  0  0  0  0  0  0  0
  -36.7161   61.6361   63.3240 O   0  0  0  0  0  0  0  0  0  0  0  0
  -37.3390   61.9434   65.7740 O   0  0  0  0  0  0  0  0  0  0  0  0
  -38.2318   62.2401   65.5379 H   0  0  0  0  0  0  0  0  0  0  0  0
  -35.3466   60.6388   65.1343 O   0  0  0  0  0  0  0  0  0  0  0  0
  -34.4434   61.6024   65.7255 C   0  0  0  0  0  0  0  0  0  0  0  0
  -33.4919   62.0085   64.6231 C   0  0  0  0  0  0  0  0  0  0  0  0
  -33.2314   63.4946   64.4774 N   0  0  0  0  0  0  0  0  0  0  0  0
  -34.4247   64.2941   64.8919 C   0  0  0  0  0  0  0  0  0  0  0  0
  -32.9174   63.8099   63.0501 C   0  0  0  0  0  0  0  0  0  0  0  0
  -32.0707   63.8867   65.3367 C   0  0  0  0  0  0  0  0  0  0  0  0
 34 33  1  0  0  0
 34 35  1  0  0  0
 34 36  1  0  0  0
 34 37  1  0  0  0
 22 23  1  0  0  0
 22 25  1  0  0  0
 22 21  1  0  0  0
 27 26  1  0  0  0
 27 28  2  0  0  0
 27 31  1  0  0  0
 27 29  1  0  0  0
 25 26  1  0  0  0
 32 33  1  0  0  0
 32 31  1  0  0  0
 20 21  1  0  0  0
 20  2  1  0  0  0
  1  2  2  0  0  0
  2  3  1  0  0  0
  3  4  1  0  0  0
  4  5  1  0  0  0
  5  6  1  0  0  0
  6  7  1  0  0  0
  7  8  1  0  0  0
  8  9  1  0  0  0
  9 10  1  0  0  0
 10 11  2  0  0  0
 11 12  1  0  0  0
 12 13  1  0  0  0
 13 14  1  0  0  0
 14 15  1  0  0  0
 15 16  1  0  0  0
 16 17  1  0  0  0
 17 18  1  0  0  0
 18 19  1  0  0  0
 23 24  1  0  0  0
 29 30  1  0  0  0
M  CHG 1  28  -1
M  END
> <minimizedAffinity>
-8.05311

> <CNNscore>
0.8073856831

> <CNNaffinity>
6.4472832680

> <CNN_VS>
5.2054443359

> <CNNaffinity_variance>
0.1507954001

$$$$



 37 36  0  0  0  0  0  0  0  0999 V2000
  -40.1293   58.2894   65.2862 O   0  0  0  0  0  0  0  0  0  0  0  0
  -41.2586   58.0636   64.9754 C   0  0  0  0  0  0  0  0  0  0  0  0
  -42.4153   58.0773   65.9204 C   0  0  0  0  0  0  0  0  0  0  0  0
  -43.5333   57.1423   65.4994 C   0  0  0  0  0  0  0  0  0  0  0  0
  -44.8800   57.8290   65.4271 C   0  0  0  0  0  0  0  0  0  0  0  0
  -45.4952   58.1439   66.7704 C   0  0  0  0  0  0  0  0  0  0  0  0
  -46.7786   58.9299   66.6847 C   0  0  0  0  0  0  0  0  0  0  0  0
  -47.4214   58.8331   65.3272 C   0  0  0  0  0  0  0  0  0  0  0  0
  -48.5990   57.9083   65.2368 C   0  0  0  0  0  0  0  0  0  0  0  0
  -49.7842   58.4021   65.9526 C   0  0  0  0  0  0  0  0  0  0  0  0
  -50.6828   59.2643   65.5310 C   0  0  0  0  0  0  0  0  0  0  0  0
  -50.7470   59.9464   64.2137 C   0  0  0  0  0  0  0  0  0  0  0  0
  -51.3064   59.1175   63.0756 C   0  0  0  0  0  0  0  0  0  0  0  0
  -50.2410   58.6322   62.1315 C   0  0  0  0  0  0  0  0  0  0  0  0
  -50.7280   57.6821   61.0675 C   0  0  0  0  0  0  0  0  0  0  0  0
  -49.5945   57.0347   60.3029 C   0  0  0  0  0  0  0  0  0  0  0  0
  -48.9245   57.9224   59.2915 C   0  0  0  0  0  0  0  0  0  0  0  0
  -47.7413   57.3004   58.6652 C   0  0  0  0  0  0  0  0  0  0  0  0
  -47.2966   57.9882   57.4546 C   0  0  0  0  0  0  0  0  0  0  0  0
  -41.6397   57.7587   63.7350 O   0  0  0  0  0  0  0  0  0  0  0  0
  -41.9146   58.8536   62.8329 C   0  0  0  0  0  0  0  0  0  0  0  0
  -41.5731   58.3767   61.4399 C   0  0  0  0  0  0  0  0  0  0  0  0
  -41.3888   59.5034   60.5829 O   0  0  0  0  0  0  0  0  0  0  0  0
  -40.6305   60.0238   60.8915 H   0  0  0  0  0  0  0  0  0  0  0  0
  -40.3462   57.5024   61.3468 C   0  0  0  0  0  0  0  0  0  0  0  0
  -39.2848   58.2646   60.7375 O   0  0  0  0  0  0  0  0  0  0  0  0
  -38.1472   58.8983   61.6507 P   0  0  0  0  0  0  0  0  0  0  0  0
  -37.9556   60.2913   61.1991 O   0  0  0  0  0  0  0  0  0  0  0  0
  -38.5329   58.6431   63.0525 O   0  0  0  0  0  0  0  0  0  0  0  0
  -39.3570   59.1142   63.2520 H   0  0  0  0  0  0  0  0  0  0  0  0
  -36.7989   58.1060   61.3835 O   0  0  0  0  0  0  0  0  0  0  0  0
  -35.9635   57.7154   62.4986 C   0  0  0  0  0  0  0  0  0  0  0  0
  -34.5979   58.2998   62.2173 C   0  0  0  0  0  0  0  0  0  0  0  0
  -33.8848   58.9321   63.3961 N   0  0  0  0  0  0  0  0  0  0  0  0
  -32.4036   58.7642   63.2832 C   0  0  0  0  0  0  0  0  0  0  0  0
  -34.3437   58.2856   64.6637 C   0  0  0  0  0  0  0  0  0  0  0  0
  -34.1983   60.3945   63.4459 C   0  0  0  0  0  0  0  0  0  0  0  0
 34 33  1  0  0  0
 34 35  1  0  0  0
 34 36  1  0  0  0
 34 37  1  0  0  0
 22 23  1  0  0  0
 22 25  1  0  0  0
 22 21  1  0  0  0
 27 26  1  0  0  0
 27 28  2  0  0  0
 27 31  1  0  0  0
 27 29  1  0  0  0
 25 26  1  0  0  0
 32 33  1  0  0  0
 32 31  1  0  0  0
 20 21  1  0  0  0
 20  2  1  0  0  0
  1  2  2  0  0  0
  2  3  1  0  0  0
  3  4  1  0  0  0
  4  5  1  0  0  0
  5  6  1  0  0  0
  6  7  1  0  0  0
  7  8  1  0  0  0
  8  9  1  0  0  0
  9 10  1  0  0  0
 10 11  2  0  0  0
 11 12  1  0  0  0
 12 13  1  0  0  0
 13 14  1  0  0  0
 14 15  1  0  0  0
 15 16  1  0  0  0
 16 17  1  0  0  0
 17 18  1  0  0  0
 18 19  1  0  0  0
 23 24  1  0  0  0
 29 30  1  0  0  0
M  CHG 1  28  -1
M  END
> <minimizedAffinity>
-7.93550

> <CNNscore>
0.8003686070

> <CNNaffinity>
6.8100843430

> <CNN_VS>
5.4505777359

> <CNNaffinity_variance>
0.2124833614

$$$$



 37 36  0  0  0  0  0  0  0  0999 V2000
  -41.0842   61.7013   66.2307 O   0  0  0  0  0  0  0  0  0  0  0  0
  -41.0881   60.5087   66.2549 C   0  0  0  0  0  0  0  0  0  0  0  0
  -42.1804   59.6778   66.8446 C   0  0  0  0  0  0  0  0  0  0  0  0
  -42.1265   58.2286   66.3992 C   0  0  0  0  0  0  0  0  0  0  0  0
  -43.4974   57.6363   66.1539 C   0  0  0  0  0  0  0  0  0  0  0  0
  -43.9265   57.6294   64.7056 C   0  0  0  0  0  0  0  0  0  0  0  0
  -45.2357   58.3329   64.4535 C   0  0  0  0  0  0  0  0  0  0  0  0
  -45.9469   58.6963   65.7292 C   0  0  0  0  0  0  0  0  0  0  0  0
  -47.4452   58.6791   65.6586 C   0  0  0  0  0  0  0  0  0  0  0  0
  -48.0061   59.8100   64.9052 C   0  0  0  0  0  0  0  0  0  0  0  0
  -48.7346   59.7712   63.8113 C   0  0  0  0  0  0  0  0  0  0  0  0
  -49.1993   58.5748   63.0650 C   0  0  0  0  0  0  0  0  0  0  0  0
  -49.9769   58.8578   61.7960 C   0  0  0  0  0  0  0  0  0  0  0  0
  -50.3343   57.6065   61.0419 C   0  0  0  0  0  0  0  0  0  0  0  0
  -49.2220   57.0421   60.1957 C   0  0  0  0  0  0  0  0  0  0  0  0
  -49.1829   57.6452   58.8089 C   0  0  0  0  0  0  0  0  0  0  0  0
  -47.8217   58.0869   58.3486 C   0  0  0  0  0  0  0  0  0  0  0  0
  -47.3678   57.3938   57.1268 C   0  0  0  0  0  0  0  0  0  0  0  0
  -47.3395   55.9388   57.2618 C   0  0  0  0  0  0  0  0  0  0  0  0
  -40.1064   59.7535   65.7622 O   0  0  0  0  0  0  0  0  0  0  0  0
  -38.7629   60.0218   66.2217 C   0  0  0  0  0  0  0  0  0  0  0  0
  -37.9146   60.2640   64.9945 C   0  0  0  0  0  0  0  0  0  0  0  0
  -38.7481   60.6884   63.9159 O   0  0  0  0  0  0  0  0  0  0  0  0
  -39.1600   61.5374   64.1403 H   0  0  0  0  0  0  0  0  0  0  0  0
  -36.8112   61.2788   65.1708 C   0  0  0  0  0  0  0  0  0  0  0  0
  -36.8847   61.8086   66.5098 O   0  0  0  0  0  0  0  0  0  0  0  0
  -36.1261   63.1610   66.8632 P   0  0  0  0  0  0  0  0  0  0  0  0
  -36.5200   64.1567   65.8461 O   0  0  0  0  0  0  0  0  0  0  0  0
  -36.3948   63.4422   68.2872 O   0  0  0  0  0  0  0  0  0  0  0  0
  -37.3431   63.6039   68.4115 H   0  0  0  0  0  0  0  0  0  0  0  0
  -34.5667   62.9057   66.7217 O   0  0  0  0  0  0  0  0  0  0  0  0
  -33.7660   63.7919   65.9048 C   0  0  0  0  0  0  0  0  0  0  0  0
  -33.4191   63.0070   64.6602 C   0  0  0  0  0  0  0  0  0  0  0  0
  -32.6027   63.7388   63.6134 N   0  0  0  0  0  0  0  0  0  0  0  0
  -31.3991   62.9457   63.2171 C   0  0  0  0  0  0  0  0  0  0  0  0
  -32.1491   65.0536   64.1619 C   0  0  0  0  0  0  0  0  0  0  0  0
  -33.4423   63.9743   62.3972 C   0  0  0  0  0  0  0  0  0  0  0  0
 34 33  1  0  0  0
 34 35  1  0  0  0
 34 36  1  0  0  0
 34 37  1  0  0  0
 22 23  1  0  0  0
 22 25  1  0  0  0
 22 21  1  0  0  0
 27 26  1  0  0  0
 27 28  2  0  0  0
 27 31  1  0  0  0
 27 29  1  0  0  0
 25 26  1  0  0  0
 32 33  1  0  0  0
 32 31  1  0  0  0
 20 21  1  0  0  0
 20  2  1  0  0  0
  1  2  2  0  0  0
  2  3  1  0  0  0
  3  4  1  0  0  0
  4  5  1  0  0  0
  5  6  1  0  0  0
  6  7  1  0  0  0
  7  8  1  0  0  0
  8  9  1  0  0  0
  9 10  1  0  0  0
 10 11  2  0  0  0
 11 12  1  0  0  0
 12 13  1  0  0  0
 13 14  1  0  0  0
 14 15  1  0  0  0
 15 16  1  0  0  0
 16 17  1  0  0  0
 17 18  1  0  0  0
 18 19  1  0  0  0
 23 24  1  0  0  0
 29 30  1  0  0  0
M  CHG 1  28  -1
M  END
> <minimizedAffinity>
-8.19168

> <CNNscore>
0.7514990568

> <CNNaffinity>
6.2714905739

> <CNN_VS>
4.7130193710

> <CNNaffinity_variance>
0.1452089995

$$$$



 37 36  0  0  0  0  0  0  0  0999 V2000
  -42.6266   59.4407   63.0785 O   0  0  0  0  0  0  0  0  0  0  0  0
  -43.0266   58.4691   63.6433 C   0  0  0  0  0  0  0  0  0  0  0  0
  -44.3547   58.3699   64.3196 C   0  0  0  0  0  0  0  0  0  0  0  0
  -44.2684   57.7553   65.7039 C   0  0  0  0  0  0  0  0  0  0  0  0
  -45.5124   57.9925   66.5325 C   0  0  0  0  0  0  0  0  0  0  0  0
  -46.6314   58.6909   65.7962 C   0  0  0  0  0  0  0  0  0  0  0  0
  -47.7793   59.1048   66.6812 C   0  0  0  0  0  0  0  0  0  0  0  0
  -48.8554   59.8338   65.9222 C   0  0  0  0  0  0  0  0  0  0  0  0
  -50.1771   59.1289   65.8421 C   0  0  0  0  0  0  0  0  0  0  0  0
  -51.0972   59.7253   64.8628 C   0  0  0  0  0  0  0  0  0  0  0  0
  -51.1553   59.5034   63.5682 C   0  0  0  0  0  0  0  0  0  0  0  0
  -50.3221   58.5761   62.7619 C   0  0  0  0  0  0  0  0  0  0  0  0
  -50.1816   58.9313   61.2958 C   0  0  0  0  0  0  0  0  0  0  0  0
  -50.4729   57.7698   60.3858 C   0  0  0  0  0  0  0  0  0  0  0  0
  -49.4602   56.6550   60.4441 C   0  0  0  0  0  0  0  0  0  0  0  0
  -48.5800   56.6040   59.2147 C   0  0  0  0  0  0  0  0  0  0  0  0
  -48.1206   57.9429   58.7087 C   0  0  0  0  0  0  0  0  0  0  0  0
  -47.2246   57.8464   57.5395 C   0  0  0  0  0  0  0  0  0  0  0  0
  -47.1308   56.4952   56.9903 C   0  0  0  0  0  0  0  0  0  0  0  0
  -42.3321   57.3366   63.7535 O   0  0  0  0  0  0  0  0  0  0  0  0
  -40.8920   57.4397   63.8132 C   0  0  0  0  0  0  0  0  0  0  0  0
  -40.3452   56.7162   62.6041 C   0  0  0  0  0  0  0  0  0  0  0  0
  -41.3577   55.8717   62.0565 O   0  0  0  0  0  0  0  0  0  0  0  0
  -42.0976   56.4152   61.7434 H   0  0  0  0  0  0  0  0  0  0  0  0
  -39.8264   57.6111   61.5048 C   0  0  0  0  0  0  0  0  0  0  0  0
  -38.7115   58.3683   62.0173 O   0  0  0  0  0  0  0  0  0  0  0  0
  -38.6025   59.9222   61.6967 P   0  0  0  0  0  0  0  0  0  0  0  0
  -38.3135   60.0472   60.2538 O   0  0  0  0  0  0  0  0  0  0  0  0
  -39.8167   60.5579   62.2449 O   0  0  0  0  0  0  0  0  0  0  0  0
  -40.5970   60.2222   61.7766 H   0  0  0  0  0  0  0  0  0  0  0  0
  -37.3643   60.5074   62.4975 O   0  0  0  0  0  0  0  0  0  0  0  0
  -36.7559   59.7236   63.5507 C   0  0  0  0  0  0  0  0  0  0  0  0
  -35.3661   60.2886   63.7372 C   0  0  0  0  0  0  0  0  0  0  0  0
  -34.2156   59.3556   63.4150 N   0  0  0  0  0  0  0  0  0  0  0  0
  -33.7247   58.6608   64.6442 C   0  0  0  0  0  0  0  0  0  0  0  0
  -33.0866   60.1387   62.8256 C   0  0  0  0  0  0  0  0  0  0  0  0
  -34.6678   58.3235   62.4302 C   0  0  0  0  0  0  0  0  0  0  0  0
 34 33  1  0  0  0
 34 35  1  0  0  0
 34 36  1  0  0  0
 34 37  1  0  0  0
 22 23  1  0  0  0
 22 25  1  0  0  0
 22 21  1  0  0  0
 27 26  1  0  0  0
 27 28  2  0  0  0
 27 31  1  0  0  0
 27 29  1  0  0  0
 25 26  1  0  0  0
 32 33  1  0  0  0
 32 31  1  0  0  0
 20 21  1  0  0  0
 20  2  1  0  0  0
  1  2  2  0  0  0
  2  3  1  0  0  0
  3  4  1  0  0  0
  4  5  1  0  0  0
  5  6  1  0  0  0
  6  7  1  0  0  0
  7  8  1  0  0  0
  8  9  1  0  0  0
  9 10  1  0  0  0
 10 11  2  0  0  0
 11 12  1  0  0  0
 12 13  1  0  0  0
 13 14  1  0  0  0
 14 15  1  0  0  0
 15 16  1  0  0  0
 16 17  1  0  0  0
 17 18  1  0  0  0
 18 19  1  0  0  0
 23 24  1  0  0  0
 29 30  1  0  0  0
M  CHG 1  28  -1
M  END
> <minimizedAffinity>
-8.02061

> <CNNscore>
0.7425099015

> <CNNaffinity>
6.7797484398

> <CNN_VS>
5.0340304375

> <CNNaffinity_variance>
0.2622965276

$$$$



 37 36  0  0  0  0  0  0  0  0999 V2000
  -44.2539   58.3447   63.9579 O   0  0  0  0  0  0  0  0  0  0  0  0
  -43.7416   58.2527   65.0312 C   0  0  0  0  0  0  0  0  0  0  0  0
  -44.4897   58.1478   66.3198 C   0  0  0  0  0  0  0  0  0  0  0  0
  -45.9909   58.0483   66.1250 C   0  0  0  0  0  0  0  0  0  0  0  0
  -46.7713   58.8620   67.1346 C   0  0  0  0  0  0  0  0  0  0  0  0
  -48.1251   59.3270   66.6520 C   0  0  0  0  0  0  0  0  0  0  0  0
  -48.9589   58.2363   66.0297 C   0  0  0  0  0  0  0  0  0  0  0  0
  -50.3822   58.6655   65.7940 C   0  0  0  0  0  0  0  0  0  0  0  0
  -50.5505   59.9837   65.0983 C   0  0  0  0  0  0  0  0  0  0  0  0
  -51.4994   59.9338   63.9766 C   0  0  0  0  0  0  0  0  0  0  0  0
  -51.4139   59.2193   62.8762 C   0  0  0  0  0  0  0  0  0  0  0  0
  -50.3484   58.2601   62.4902 C   0  0  0  0  0  0  0  0  0  0  0  0
  -50.6217   57.4484   61.2405 C   0  0  0  0  0  0  0  0  0  0  0  0
  -50.3324   58.2113   59.9770 C   0  0  0  0  0  0  0  0  0  0  0  0
  -48.9095   58.1076   59.4909 C   0  0  0  0  0  0  0  0  0  0  0  0
  -48.3472   56.7102   59.6314 C   0  0  0  0  0  0  0  0  0  0  0  0
  -47.4478   56.2736   58.5088 C   0  0  0  0  0  0  0  0  0  0  0  0
  -47.6867   57.0106   57.2522 C   0  0  0  0  0  0  0  0  0  0  0  0
  -46.6014   57.9240   56.8999 C   0  0  0  0  0  0  0  0  0  0  0  0
  -42.4229   58.2393   65.2250 O   0  0  0  0  0  0  0  0  0  0  0  0
  -41.8977   59.0501   66.2996 C   0  0  0  0  0  0  0  0  0  0  0  0
  -40.9024   60.0081   65.6867 C   0  0  0  0  0  0  0  0  0  0  0  0
  -41.2277   61.3437   66.0720 O   0  0  0  0  0  0  0  0  0  0  0  0
  -41.1419   61.4326   67.0341 H   0  0  0  0  0  0  0  0  0  0  0  0
  -39.4598   59.7473   66.0464 C   0  0  0  0  0  0  0  0  0  0  0  0
  -39.0679   58.4799   65.4816 O   0  0  0  0  0  0  0  0  0  0  0  0
  -37.8852   58.4241   64.4198 P   0  0  0  0  0  0  0  0  0  0  0  0
  -37.4191   59.8108   64.2177 O   0  0  0  0  0  0  0  0  0  0  0  0
  -36.9290   57.4063   64.8982 O   0  0  0  0  0  0  0  0  0  0  0  0
  -36.5449   57.6944   65.7411 H   0  0  0  0  0  0  0  0  0  0  0  0
  -38.4784   57.9006   63.0447 O   0  0  0  0  0  0  0  0  0  0  0  0
  -39.9076   57.9345   62.8208 C   0  0  0  0  0  0  0  0  0  0  0  0
  -40.1903   59.2600   62.1510 C   0  0  0  0  0  0  0  0  0  0  0  0
  -40.3873   59.2221   60.6485 N   0  0  0  0  0  0  0  0  0  0  0  0
  -41.3451   60.2802   60.2036 C   0  0  0  0  0  0  0  0  0  0  0  0
  -40.9303   57.8876   60.2487 C   0  0  0  0  0  0  0  0  0  0  0  0
  -39.0751   59.4462   59.9650 C   0  0  0  0  0  0  0  0  0  0  0  0
 34 33  1  0  0  0
 34 35  1  0  0  0
 34 36  1  0  0  0
 34 37  1  0  0  0
 22 23  1  0  0  0
 22 25  1  0  0  0
 22 21  1  0  0  0
 27 26  1  0  0  0
 27 28  2  0  0  0
 27 31  1  0  0  0
 27 29  1  0  0  0
 25 26  1  0  0  0
 32 33  1  0  0  0
 32 31  1  0  0  0
 20 21  1  0  0  0
 20  2  1  0  0  0
  1  2  2  0  0  0
  2  3  1  0  0  0
  3  4  1  0  0  0
  4  5  1  0  0  0
  5  6  1  0  0  0
  6  7  1  0  0  0
  7  8  1  0  0  0
  8  9  1  0  0  0
  9 10  1  0  0  0
 10 11  2  0  0  0
 11 12  1  0  0  0
 12 13  1  0  0  0
 13 14  1  0  0  0
 14 15  1  0  0  0
 15 16  1  0  0  0
 16 17  1  0  0  0
 17 18  1  0  0  0
 18 19  1  0  0  0
 23 24  1  0  0  0
 29 30  1  0  0  0
M  CHG 1  28  -1
M  END
> <minimizedAffinity>
-8.09215

> <CNNscore>
0.7377271652

> <CNNaffinity>
7.1451935768

> <CNN_VS>
5.2712035179

> <CNNaffinity_variance>
0.3127607703

$$$$



 37 36  0  0  0  0  0  0  0  0999 V2000
  -41.2394   61.7699   66.2829 O   0  0  0  0  0  0  0  0  0  0  0  0
  -41.3455   60.5820   66.3059 C   0  0  0  0  0  0  0  0  0  0  0  0
  -42.3853   59.8400   67.0801 C   0  0  0  0  0  0  0  0  0  0  0  0
  -42.5455   58.4014   66.6260 C   0  0  0  0  0  0  0  0  0  0  0  0
  -43.7781   58.1860   65.7746 C   0  0  0  0  0  0  0  0  0  0  0  0
  -45.0755   58.1546   66.5478 C   0  0  0  0  0  0  0  0  0  0  0  0
  -46.2617   58.6653   65.7705 C   0  0  0  0  0  0  0  0  0  0  0  0
  -47.5172   58.7052   66.5996 C   0  0  0  0  0  0  0  0  0  0  0  0
  -48.4595   59.8299   66.2876 C   0  0  0  0  0  0  0  0  0  0  0  0
  -48.3976   60.2703   64.8864 C   0  0  0  0  0  0  0  0  0  0  0  0
  -49.2464   60.0066   63.9175 C   0  0  0  0  0  0  0  0  0  0  0  0
  -50.4999   59.2144   63.9915 C   0  0  0  0  0  0  0  0  0  0  0  0
  -50.9727   58.6162   62.6823 C   0  0  0  0  0  0  0  0  0  0  0  0
  -49.8382   58.1390   61.8180 C   0  0  0  0  0  0  0  0  0  0  0  0
  -49.7155   58.8468   60.4929 C   0  0  0  0  0  0  0  0  0  0  0  0
  -49.3795   57.9038   59.3587 C   0  0  0  0  0  0  0  0  0  0  0  0
  -48.0123   57.2835   59.4347 C   0  0  0  0  0  0  0  0  0  0  0  0
  -47.4946   56.8546   58.1205 C   0  0  0  0  0  0  0  0  0  0  0  0
  -47.0824   57.9678   57.2678 C   0  0  0  0  0  0  0  0  0  0  0  0
  -40.5385   59.7523   65.6446 O   0  0  0  0  0  0  0  0  0  0  0  0
  -39.1217   59.8433   65.9138 C   0  0  0  0  0  0  0  0  0  0  0  0
  -38.5252   58.4877   65.6126 C   0  0  0  0  0  0  0  0  0  0  0  0
  -39.4735   57.6995   64.8932 O   0  0  0  0  0  0  0  0  0  0  0  0
  -39.6586   58.1174   64.0376 H   0  0  0  0  0  0  0  0  0  0  0  0
  -37.2370   58.5170   64.8262 C   0  0  0  0  0  0  0  0  0  0  0  0
  -37.5304   58.1912   63.4527 O   0  0  0  0  0  0  0  0  0  0  0  0
  -36.8301   59.0105   62.2832 P   0  0  0  0  0  0  0  0  0  0  0  0
  -35.5495   59.5173   62.8165 O   0  0  0  0  0  0  0  0  0  0  0  0
  -36.8182   58.1343   61.0953 O   0  0  0  0  0  0  0  0  0  0  0  0
  -36.2655   57.3571   61.2723 H   0  0  0  0  0  0  0  0  0  0  0  0
  -37.7455   60.2589   61.9360 O   0  0  0  0  0  0  0  0  0  0  0  0
  -39.1699   60.1943   62.1820 C   0  0  0  0  0  0  0  0  0  0  0  0
  -39.7849   59.6504   60.9125 C   0  0  0  0  0  0  0  0  0  0  0  0
  -40.8962   58.6347   61.0890 N   0  0  0  0  0  0  0  0  0  0  0  0
  -41.8587   59.0674   62.1478 C   0  0  0  0  0  0  0  0  0  0  0  0
  -40.3111   57.3170   61.4848 C   0  0  0  0  0  0  0  0  0  0  0  0
  -41.6409   58.4774   59.8005 C   0  0  0  0  0  0  0  0  0  0  0  0
 34 33  1  0  0  0
 34 35  1  0  0  0
 34 36  1  0  0  0
 34 37  1  0  0  0
 22 23  1  0  0  0
 22 25  1  0  0  0
 22 21  1  0  0  0
 27 26  1  0  0  0
 27 28  2  0  0  0
 27 31  1  0  0  0
 27 29  1  0  0  0
 25 26  1  0  0  0
 32 33  1  0  0  0
 32 31  1  0  0  0
 20 21  1  0  0  0
 20  2  1  0  0  0
  1  2  2  0  0  0
  2  3  1  0  0  0
  3  4  1  0  0  0
  4  5  1  0  0  0
  5  6  1  0  0  0
  6  7  1  0  0  0
  7  8  1  0  0  0
  8  9  1  0  0  0
  9 10  1  0  0  0
 10 11  2  0  0  0
 11 12  1  0  0  0
 12 13  1  0  0  0
 13 14  1  0  0  0
 14 15  1  0  0  0
 15 16  1  0  0  0
 16 17  1  0  0  0
 17 18  1  0  0  0
 18 19  1  0  0  0
 23 24  1  0  0  0
 29 30  1  0  0  0
M  CHG 1  28  -1
M  END
> <minimizedAffinity>
-8.05772

> <CNNscore>
0.6742690802

> <CNNaffinity>
7.0477113724

> <CNN_VS>
4.7520537376

> <CNNaffinity_variance>
0.3041820228

$$$$



 37 36  0  0  0  0  0  0  0  0999 V2000
  -42.7459   59.3360   64.7629 O   0  0  0  0  0  0  0  0  0  0  0  0
  -43.1746   58.2253   64.6897 C   0  0  0  0  0  0  0  0  0  0  0  0
  -44.1291   57.6205   65.6666 C   0  0  0  0  0  0  0  0  0  0  0  0
  -44.7533   58.6455   66.5946 C   0  0  0  0  0  0  0  0  0  0  0  0
  -46.2641   58.5639   66.6316 C   0  0  0  0  0  0  0  0  0  0  0  0
  -46.8177   57.1612   66.5443 C   0  0  0  0  0  0  0  0  0  0  0  0
  -48.2132   57.0899   65.9788 C   0  0  0  0  0  0  0  0  0  0  0  0
  -48.8481   58.4480   65.8442 C   0  0  0  0  0  0  0  0  0  0  0  0
  -50.3481   58.4606   65.8456 C   0  0  0  0  0  0  0  0  0  0  0  0
  -50.9207   59.7272   65.3670 C   0  0  0  0  0  0  0  0  0  0  0  0
  -51.3015   60.0324   64.1462 C   0  0  0  0  0  0  0  0  0  0  0  0
  -51.2735   59.1700   62.9379 C   0  0  0  0  0  0  0  0  0  0  0  0
  -50.0500   59.3194   62.0570 C   0  0  0  0  0  0  0  0  0  0  0  0
  -49.4515   57.9967   61.6642 C   0  0  0  0  0  0  0  0  0  0  0  0
  -49.6902   57.5988   60.2301 C   0  0  0  0  0  0  0  0  0  0  0  0
  -48.4892   57.8570   59.3473 C   0  0  0  0  0  0  0  0  0  0  0  0
  -47.6497   56.6459   59.0498 C   0  0  0  0  0  0  0  0  0  0  0  0
  -47.3642   56.4754   57.6116 C   0  0  0  0  0  0  0  0  0  0  0  0
  -47.3179   57.7373   56.8756 C   0  0  0  0  0  0  0  0  0  0  0  0
  -42.8498   57.3670   63.7229 O   0  0  0  0  0  0  0  0  0  0  0  0
  -42.2297   56.1223   64.1158 C   0  0  0  0  0  0  0  0  0  0  0  0
  -41.2017   55.7864   63.0600 C   0  0  0  0  0  0  0  0  0  0  0  0
  -41.2707   54.3935   62.7545 O   0  0  0  0  0  0  0  0  0  0  0  0
  -42.1382   54.1890   62.3718 H   0  0  0  0  0  0  0  0  0  0  0  0
  -41.3315   56.5629   61.7721 C   0  0  0  0  0  0  0  0  0  0  0  0
  -40.3553   57.6239   61.7755 O   0  0  0  0  0  0  0  0  0  0  0  0
  -40.2864   58.6332   60.5484 P   0  0  0  0  0  0  0  0  0  0  0  0
  -38.9442   58.4939   59.9481 O   0  0  0  0  0  0  0  0  0  0  0  0
  -41.4773   58.3750   59.7152 O   0  0  0  0  0  0  0  0  0  0  0  0
  -41.4290   57.4770   59.3516 H   0  0  0  0  0  0  0  0  0  0  0  0
  -40.4204   60.1096   61.1132 O   0  0  0  0  0  0  0  0  0  0  0  0
  -40.1467   60.3708   62.5099 C   0  0  0  0  0  0  0  0  0  0  0  0
  -38.7198   60.8672   62.5663 C   0  0  0  0  0  0  0  0  0  0  0  0
  -37.8251   60.2159   63.6022 N   0  0  0  0  0  0  0  0  0  0  0  0
  -36.8356   61.1930   64.1507 C   0  0  0  0  0  0  0  0  0  0  0  0
  -37.0794   59.0811   62.9765 C   0  0  0  0  0  0  0  0  0  0  0  0
  -38.6600   59.6960   64.7301 C   0  0  0  0  0  0  0  0  0  0  0  0
 34 33  1  0  0  0
 34 35  1  0  0  0
 34 36  1  0  0  0
 34 37  1  0  0  0
 22 23  1  0  0  0
 22 25  1  0  0  0
 22 21  1  0  0  0
 27 26  1  0  0  0
 27 28  2  0  0  0
 27 31  1  0  0  0
 27 29  1  0  0  0
 25 26  1  0  0  0
 32 33  1  0  0  0
 32 31  1  0  0  0
 20 21  1  0  0  0
 20  2  1  0  0  0
  1  2  2  0  0  0
  2  3  1  0  0  0
  3  4  1  0  0  0
  4  5  1  0  0  0
  5  6  1  0  0  0
  6  7  1  0  0  0
  7  8  1  0  0  0
  8  9  1  0  0  0
  9 10  1  0  0  0
 10 11  2  0  0  0
 11 12  1  0  0  0
 12 13  1  0  0  0
 13 14  1  0  0  0
 14 15  1  0  0  0
 15 16  1  0  0  0
 16 17  1  0  0  0
 17 18  1  0  0  0
 18 19  1  0  0  0
 23 24  1  0  0  0
 29 30  1  0  0  0
M  CHG 1  28  -1
M  END
> <minimizedAffinity>
-8.16315

> <CNNscore>
0.6712038517

> <CNNaffinity>
7.1323690414

> <CNN_VS>
4.7872734070

> <CNNaffinity_variance>
0.4077388346

$$$$



 37 36  0  0  0  0  0  0  0  0999 V2000
  -42.2914   58.8047   66.1140 O   0  0  0  0  0  0  0  0  0  0  0  0
  -42.3637   58.1139   65.1442 C   0  0  0  0  0  0  0  0  0  0  0  0
  -43.6335   57.5391   64.6073 C   0  0  0  0  0  0  0  0  0  0  0  0
  -44.8193   58.4711   64.7706 C   0  0  0  0  0  0  0  0  0  0  0  0
  -45.7020   58.1018   65.9432 C   0  0  0  0  0  0  0  0  0  0  0  0
  -47.1825   58.1245   65.6441 C   0  0  0  0  0  0  0  0  0  0  0  0
  -47.5872   59.1782   64.6451 C   0  0  0  0  0  0  0  0  0  0  0  0
  -48.7081   60.0470   65.1494 C   0  0  0  0  0  0  0  0  0  0  0  0
  -50.0097   59.3421   65.3925 C   0  0  0  0  0  0  0  0  0  0  0  0
  -51.1397   59.9376   64.6646 C   0  0  0  0  0  0  0  0  0  0  0  0
  -51.5186   59.7031   63.4277 C   0  0  0  0  0  0  0  0  0  0  0  0
  -50.9179   58.7594   62.4514 C   0  0  0  0  0  0  0  0  0  0  0  0
  -49.8692   59.3508   61.5318 C   0  0  0  0  0  0  0  0  0  0  0  0
  -49.7658   58.6192   60.2217 C   0  0  0  0  0  0  0  0  0  0  0  0
  -50.0362   57.1387   60.3044 C   0  0  0  0  0  0  0  0  0  0  0  0
  -48.8555   56.3059   59.8561 C   0  0  0  0  0  0  0  0  0  0  0  0
  -47.7213   57.0876   59.2539 C   0  0  0  0  0  0  0  0  0  0  0  0
  -47.4184   56.6951   57.8634 C   0  0  0  0  0  0  0  0  0  0  0  0
  -46.8744   57.7866   57.0579 C   0  0  0  0  0  0  0  0  0  0  0  0
  -41.3110   57.7538   64.4099 O   0  0  0  0  0  0  0  0  0  0  0  0
  -40.0348   58.3477   64.7362 C   0  0  0  0  0  0  0  0  0  0  0  0
  -39.7348   59.3707   63.6648 C   0  0  0  0  0  0  0  0  0  0  0  0
  -39.9238   60.6832   64.1937 O   0  0  0  0  0  0  0  0  0  0  0  0
  -39.2885   60.8377   64.9103 H   0  0  0  0  0  0  0  0  0  0  0  0
  -38.3475   59.2905   63.0755 C   0  0  0  0  0  0  0  0  0  0  0  0
  -37.8123   60.6258   62.9784 O   0  0  0  0  0  0  0  0  0  0  0  0
  -36.6277   61.0703   63.9420 P   0  0  0  0  0  0  0  0  0  0  0  0
  -36.9164   60.5011   65.2738 O   0  0  0  0  0  0  0  0  0  0  0  0
  -35.3670   60.7102   63.2637 O   0  0  0  0  0  0  0  0  0  0  0  0
  -35.3144   59.7462   63.1696 H   0  0  0  0  0  0  0  0  0  0  0  0
  -36.6579   62.6515   64.0672 O   0  0  0  0  0  0  0  0  0  0  0  0
  -35.5514   63.4326   63.5580 C   0  0  0  0  0  0  0  0  0  0  0  0
  -35.0090   64.2022   64.7409 C   0  0  0  0  0  0  0  0  0  0  0  0
  -33.6530   63.7655   65.2587 N   0  0  0  0  0  0  0  0  0  0  0  0
  -33.7938   62.8347   66.4200 C   0  0  0  0  0  0  0  0  0  0  0  0
  -32.8758   64.9645   65.6990 C   0  0  0  0  0  0  0  0  0  0  0  0
  -32.9033   63.0632   64.1706 C   0  0  0  0  0  0  0  0  0  0  0  0
 34 33  1  0  0  0
 34 35  1  0  0  0
 34 36  1  0  0  0
 34 37  1  0  0  0
 22 23  1  0  0  0
 22 25  1  0  0  0
 22 21  1  0  0  0
 27 26  1  0  0  0
 27 28  2  0  0  0
 27 31  1  0  0  0
 27 29  1  0  0  0
 25 26  1  0  0  0
 32 33  1  0  0  0
 32 31  1  0  0  0
 20 21  1  0  0  0
 20  2  1  0  0  0
  1  2  2  0  0  0
  2  3  1  0  0  0
  3  4  1  0  0  0
  4  5  1  0  0  0
  5  6  1  0  0  0
  6  7  1  0  0  0
  7  8  1  0  0  0
  8  9  1  0  0  0
  9 10  1  0  0  0
 10 11  2  0  0  0
 11 12  1  0  0  0
 12 13  1  0  0  0
 13 14  1  0  0  0
 14 15  1  0  0  0
 15 16  1  0  0  0
 16 17  1  0  0  0
 17 18  1  0  0  0
 18 19  1  0  0  0
 23 24  1  0  0  0
 29 30  1  0  0  0
M  CHG 1  28  -1
M  END
> <minimizedAffinity>
-7.86896

> <CNNscore>
0.6463690400

> <CNNaffinity>
6.3434309959

> <CNN_VS>
4.1001973152

> <CNNaffinity_variance>
0.2063097656

$$$$



 37 36  0  0  0  0  0  0  0  0999 V2000
  -42.5259   59.8963   67.1767 O   0  0  0  0  0  0  0  0  0  0  0  0
  -42.5494   58.9503   66.4504 C   0  0  0  0  0  0  0  0  0  0  0  0
  -43.4223   57.7542   66.6466 C   0  0  0  0  0  0  0  0  0  0  0  0
  -44.4607   57.5947   65.5522 C   0  0  0  0  0  0  0  0  0  0  0  0
  -45.8096   58.1662   65.9321 C   0  0  0  0  0  0  0  0  0  0  0  0
  -46.6328   58.6575   64.7647 C   0  0  0  0  0  0  0  0  0  0  0  0
  -47.7425   59.6004   65.1543 C   0  0  0  0  0  0  0  0  0  0  0  0
  -48.6524   59.0149   66.2005 C   0  0  0  0  0  0  0  0  0  0  0  0
  -50.0074   58.5945   65.7132 C   0  0  0  0  0  0  0  0  0  0  0  0
  -50.9027   59.7261   65.4322 C   0  0  0  0  0  0  0  0  0  0  0  0
  -51.4635   60.0489   64.2877 C   0  0  0  0  0  0  0  0  0  0  0  0
  -51.3569   59.3417   62.9865 C   0  0  0  0  0  0  0  0  0  0  0  0
  -50.0417   59.5150   62.2548 C   0  0  0  0  0  0  0  0  0  0  0  0
  -49.4085   58.2036   61.8788 C   0  0  0  0  0  0  0  0  0  0  0  0
  -50.0101   57.5384   60.6674 C   0  0  0  0  0  0  0  0  0  0  0  0
  -49.2610   57.8626   59.3937 C   0  0  0  0  0  0  0  0  0  0  0  0
  -47.8990   57.2360   59.2831 C   0  0  0  0  0  0  0  0  0  0  0  0
  -47.5352   56.8762   57.8984 C   0  0  0  0  0  0  0  0  0  0  0  0
  -47.0805   58.0151   57.1033 C   0  0  0  0  0  0  0  0  0  0  0  0
  -41.7877   58.8310   65.3630 O   0  0  0  0  0  0  0  0  0  0  0  0
  -41.8983   59.8596   64.3542 C   0  0  0  0  0  0  0  0  0  0  0  0
  -41.5960   59.2099   63.0235 C   0  0  0  0  0  0  0  0  0  0  0  0
  -42.6758   58.3508   62.6570 O   0  0  0  0  0  0  0  0  0  0  0  0
  -43.4803   58.8780   62.5319 H   0  0  0  0  0  0  0  0  0  0  0  0
  -41.3452   60.1702   61.8861 C   0  0  0  0  0  0  0  0  0  0  0  0
  -39.9225   60.2668   61.6725 O   0  0  0  0  0  0  0  0  0  0  0  0
  -39.2171   59.3000   60.6251 P   0  0  0  0  0  0  0  0  0  0  0  0
  -40.2904   58.5924   59.8981 O   0  0  0  0  0  0  0  0  0  0  0  0
  -38.2548   60.1221   59.8654 O   0  0  0  0  0  0  0  0  0  0  0  0
  -38.7346   60.7949   59.3574 H   0  0  0  0  0  0  0  0  0  0  0  0
  -38.3784   58.2223   61.4326 O   0  0  0  0  0  0  0  0  0  0  0  0
  -36.9325   58.2700   61.4038 C   0  0  0  0  0  0  0  0  0  0  0  0
  -36.5205   59.0704   62.6183 C   0  0  0  0  0  0  0  0  0  0  0  0
  -35.5950   58.3741   63.5963 N   0  0  0  0  0  0  0  0  0  0  0  0
  -34.5017   57.6483   62.8802 C   0  0  0  0  0  0  0  0  0  0  0  0
  -36.3735   57.3870   64.4055 C   0  0  0  0  0  0  0  0  0  0  0  0
  -34.9789   59.3859   64.5106 C   0  0  0  0  0  0  0  0  0  0  0  0
 34 33  1  0  0  0
 34 35  1  0  0  0
 34 36  1  0  0  0
 34 37  1  0  0  0
 22 23  1  0  0  0
 22 25  1  0  0  0
 22 21  1  0  0  0
 27 26  1  0  0  0
 27 28  2  0  0  0
 27 31  1  0  0  0
 27 29  1  0  0  0
 25 26  1  0  0  0
 32 33  1  0  0  0
 32 31  1  0  0  0
 20 21  1  0  0  0
 20  2  1  0  0  0
  1  2  2  0  0  0
  2  3  1  0  0  0
  3  4  1  0  0  0
  4  5  1  0  0  0
  5  6  1  0  0  0
  6  7  1  0  0  0
  7  8  1  0  0  0
  8  9  1  0  0  0
  9 10  1  0  0  0
 10 11  2  0  0  0
 11 12  1  0  0  0
 12 13  1  0  0  0
 13 14  1  0  0  0
 14 15  1  0  0  0
 15 16  1  0  0  0
 16 17  1  0  0  0
 17 18  1  0  0  0
 18 19  1  0  0  0
 23 24  1  0  0  0
 29 30  1  0  0  0
M  CHG 1  28  -1
M  END
> <minimizedAffinity>
-8.07095

> <CNNscore>
0.6207718253

> <CNNaffinity>
6.6400022507

> <CNN_VS>
4.1219263077

> <CNNaffinity_variance>
0.2666439414

$$$$
