


 37 36  0  0  0  0  0  0  0  0999 V2000
  -41.0104   61.4705   66.3716 O   0  0  0  0  0  0  0  0  0  0  0  0
  -40.9754   60.2784   66.3464 C   0  0  0  0  0  0  0  0  0  0  0  0
  -42.0964   59.3895   66.7758 C   0  0  0  0  0  0  0  0  0  0  0  0
  -42.7587   58.6714   65.6152 C   0  0  0  0  0  0  0  0  0  0  0  0
  -43.6783   57.5550   66.0606 C   0  0  0  0  0  0  0  0  0  0  0  0
  -45.0281   58.0164   66.5578 C   0  0  0  0  0  0  0  0  0  0  0  0
  -46.1764   57.6139   65.6681 C   0  0  0  0  0  0  0  0  0  0  0  0
  -47.5029   58.0990   66.1882 C   0  0  0  0  0  0  0  0  0  0  0  0
  -48.0591   59.3117   65.5024 C   0  0  0  0  0  0  0  0  0  0  0  0
  -49.5280   59.3268   65.4456 C   0  0  0  0  0  0  0  0  0  0  0  0
  -50.3004   59.0531   64.4175 C   0  0  0  0  0  0  0  0  0  0  0  0
  -49.8911   58.6355   63.0528 C   0  0  0  0  0  0  0  0  0  0  0  0
  -50.9978   58.0788   62.1806 C   0  0  0  0  0  0  0  0  0  0  0  0
  -50.4817   57.4615   60.9100 C   0  0  0  0  0  0  0  0  0  0  0  0
  -49.5314   58.3319   60.1280 C   0  0  0  0  0  0  0  0  0  0  0  0
  -48.7890   57.5652   59.0558 C   0  0  0  0  0  0  0  0  0  0  0  0
  -47.3294   57.9028   58.9314 C   0  0  0  0  0  0  0  0  0  0  0  0
  -46.8912   58.0820   57.5332 C   0  0  0  0  0  0  0  0  0  0  0  0
  -47.4978   57.1268   56.6080 C   0  0  0  0  0  0  0  0  0  0  0  0
  -39.9195   59.5759   65.9359 O   0  0  0  0  0  0  0  0  0  0  0  0
  -39.2512   60.0165   64.7328 C   0  0  0  0  0  0  0  0  0  0  0  0
  -39.2010   58.8327   63.7945 C   0  0  0  0  0  0  0  0  0  0  0  0
  -39.6106   57.6557   64.4909 O   0  0  0  0  0  0  0  0  0  0  0  0
  -40.5350   57.7499   64.7693 H   0  0  0  0  0  0  0  0  0  0  0  0
  -40.0451   58.9674   62.5504 C   0  0  0  0  0  0  0  0  0  0  0  0
  -39.5620   60.0915   61.7876 O   0  0  0  0  0  0  0  0  0  0  0  0
  -38.5731   59.8464   60.5663 P   0  0  0  0  0  0  0  0  0  0  0  0
  -39.3806   59.9281   59.3325 O   0  0  0  0  0  0  0  0  0  0  0  0
  -37.4363   60.7710   60.7446 O   0  0  0  0  0  0  0  0  0  0  0  0
  -37.7509   61.6863   60.6803 H   0  0  0  0  0  0  0  0  0  0  0  0
  -38.0004   58.3713   60.6811 O   0  0  0  0  0  0  0  0  0  0  0  0
  -36.5898   58.1670   60.9306 C   0  0  0  0  0  0  0  0  0  0  0  0
  -36.5029   57.4711   62.2699 C   0  0  0  0  0  0  0  0  0  0  0  0
  -35.5364   58.0687   63.2732 N   0  0  0  0  0  0  0  0  0  0  0  0
  -34.1233   57.7155   62.9367 C   0  0  0  0  0  0  0  0  0  0  0  0
  -35.8471   57.5465   64.6392 C   0  0  0  0  0  0  0  0  0  0  0  0
  -35.6705   59.5591   63.2719 C   0  0  0  0  0  0  0  0  0  0  0  0
 34 33  1  0  0  0
 34 35  1  0  0  0
 34 36  1  0  0  0
 34 37  1  0  0  0
 22 23  1  0  0  0
 22 25  1  0  0  0
 22 21  1  0  0  0
 27 26  1  0  0  0
 27 28  2  0  0  0
 27 31  1  0  0  0
 27 29  1  0  0  0
 25 26  1  0  0  0
 32 33  1  0  0  0
 32 31  1  0  0  0
 20 21  1  0  0  0
 20  2  1  0  0  0
  1  2  2  0  0  0
  2  3  1  0  0  0
  3  4  1  0  0  0
  4  5  1  0  0  0
  5  6  1  0  0  0
  6  7  1  0  0  0
  7  8  1  0  0  0
  8  9  1  0  0  0
  9 10  1  0  0  0
 10 11  2  0  0  0
 11 12  1  0  0  0
 12 13  1  0  0  0
 13 14  1  0  0  0
 14 15  1  0  0  0
 15 16  1  0  0  0
 16 17  1  0  0  0
 17 18  1  0  0  0
 18 19  1  0  0  0
 23 24  1  0  0  0
 29 30  1  0  0  0
M  CHG 1  28  -1
M  END
> <minimizedAffinity>
-8.17021

> <CNNscore>
0.7960975766

> <CNNaffinity>
6.8816328049

> <CNN_VS>
5.4784512520

> <CNNaffinity_variance>
0.2601068020

$$$$



 37 36  0  0  0  0  0  0  0  0999 V2000
  -42.8667   58.9182   66.0263 O   0  0  0  0  0  0  0  0  0  0  0  0
  -43.1308   57.7848   65.7644 C   0  0  0  0  0  0  0  0  0  0  0  0
  -44.5070   57.2055   65.8046 C   0  0  0  0  0  0  0  0  0  0  0  0
  -45.5684   58.1691   65.3083 C   0  0  0  0  0  0  0  0  0  0  0  0
  -46.8278   58.1415   66.1470 C   0  0  0  0  0  0  0  0  0  0  0  0
  -48.1005   58.3961   65.3742 C   0  0  0  0  0  0  0  0  0  0  0  0
  -49.3491   57.9466   66.0893 C   0  0  0  0  0  0  0  0  0  0  0  0
  -50.4863   58.9188   65.9248 C   0  0  0  0  0  0  0  0  0  0  0  0
  -50.2261   60.0617   64.9887 C   0  0  0  0  0  0  0  0  0  0  0  0
  -51.2087   60.1582   63.8995 C   0  0  0  0  0  0  0  0  0  0  0  0
  -51.3382   59.3703   62.8550 C   0  0  0  0  0  0  0  0  0  0  0  0
  -50.5406   58.1649   62.5154 C   0  0  0  0  0  0  0  0  0  0  0  0
  -49.2384   58.4273   61.7868 C   0  0  0  0  0  0  0  0  0  0  0  0
  -49.4464   58.8498   60.3585 C   0  0  0  0  0  0  0  0  0  0  0  0
  -49.0679   57.8116   59.3334 C   0  0  0  0  0  0  0  0  0  0  0  0
  -47.5709   57.6264   59.2186 C   0  0  0  0  0  0  0  0  0  0  0  0
  -46.9787   58.0545   57.9048 C   0  0  0  0  0  0  0  0  0  0  0  0
  -47.4562   57.2507   56.7624 C   0  0  0  0  0  0  0  0  0  0  0  0
  -47.0771   55.8416   56.8456 C   0  0  0  0  0  0  0  0  0  0  0  0
  -42.2241   56.8757   65.4062 O   0  0  0  0  0  0  0  0  0  0  0  0
  -42.5086   56.0731   64.2388 C   0  0  0  0  0  0  0  0  0  0  0  0
  -41.2069   55.9025   63.4900 C   0  0  0  0  0  0  0  0  0  0  0  0
  -41.1495   54.5916   62.9275 O   0  0  0  0  0  0  0  0  0  0  0  0
  -41.8601   54.4882   62.2755 H   0  0  0  0  0  0  0  0  0  0  0  0
  -40.9687   56.9044   62.3865 C   0  0  0  0  0  0  0  0  0  0  0  0
  -39.8803   57.7661   62.7760 O   0  0  0  0  0  0  0  0  0  0  0  0
  -40.1932   59.1894   63.4130 P   0  0  0  0  0  0  0  0  0  0  0  0
  -41.5284   59.5956   62.9300 O   0  0  0  0  0  0  0  0  0  0  0  0
  -39.9598   59.0682   64.8655 O   0  0  0  0  0  0  0  0  0  0  0  0
  -40.5937   58.4388   65.2435 H   0  0  0  0  0  0  0  0  0  0  0  0
  -39.1320   60.2270   62.8524 O   0  0  0  0  0  0  0  0  0  0  0  0
  -37.9650   59.7475   62.1440 C   0  0  0  0  0  0  0  0  0  0  0  0
  -36.8687   59.6371   63.1791 C   0  0  0  0  0  0  0  0  0  0  0  0
  -35.8120   58.5806   62.9248 N   0  0  0  0  0  0  0  0  0  0  0  0
  -34.4464   59.1864   62.8693 C   0  0  0  0  0  0  0  0  0  0  0  0
  -36.0868   57.9019   61.6213 C   0  0  0  0  0  0  0  0  0  0  0  0
  -35.8415   57.5669   64.0253 C   0  0  0  0  0  0  0  0  0  0  0  0
 34 33  1  0  0  0
 34 35  1  0  0  0
 34 36  1  0  0  0
 34 37  1  0  0  0
 22 23  1  0  0  0
 22 25  1  0  0  0
 22 21  1  0  0  0
 27 26  1  0  0  0
 27 28  2  0  0  0
 27 31  1  0  0  0
 27 29  1  0  0  0
 25 26  1  0  0  0
 32 33  1  0  0  0
 32 31  1  0  0  0
 20 21  1  0  0  0
 20  2  1  0  0  0
  1  2  2  0  0  0
  2  3  1  0  0  0
  3  4  1  0  0  0
  4  5  1  0  0  0
  5  6  1  0  0  0
  6  7  1  0  0  0
  7  8  1  0  0  0
  8  9  1  0  0  0
  9 10  1  0  0  0
 10 11  2  0  0  0
 11 12  1  0  0  0
 12 13  1  0  0  0
 13 14  1  0  0  0
 14 15  1  0  0  0
 15 16  1  0  0  0
 16 17  1  0  0  0
 17 18  1  0  0  0
 18 19  1  0  0  0
 23 24  1  0  0  0
 29 30  1  0  0  0
M  CHG 1  28  -1
M  END
> <minimizedAffinity>
-8.16203

> <CNNscore>
0.7795372605

> <CNNaffinity>
7.0356802940

> <CNN_VS>
5.4845747948

> <CNNaffinity_variance>
0.4785451889

$$$$



 37 36  0  0  0  0  0  0  0  0999 V2000
  -43.0717   56.1329   65.1091 O   0  0  0  0  0  0  0  0  0  0  0  0
  -43.2911   57.3053   65.1261 C   0  0  0  0  0  0  0  0  0  0  0  0
  -44.0691   58.0053   66.1919 C   0  0  0  0  0  0  0  0  0  0  0  0
  -45.5670   57.8065   66.0570 C   0  0  0  0  0  0  0  0  0  0  0  0
  -46.1101   58.3003   64.7335 C   0  0  0  0  0  0  0  0  0  0  0  0
  -47.4957   58.8972   64.8088 C   0  0  0  0  0  0  0  0  0  0  0  0
  -48.3970   58.2229   65.8114 C   0  0  0  0  0  0  0  0  0  0  0  0
  -49.6294   59.0332   66.1115 C   0  0  0  0  0  0  0  0  0  0  0  0
  -49.8078   60.2670   65.2771 C   0  0  0  0  0  0  0  0  0  0  0  0
  -51.0808   60.2946   64.5424 C   0  0  0  0  0  0  0  0  0  0  0  0
  -51.3531   59.7529   63.3757 C   0  0  0  0  0  0  0  0  0  0  0  0
  -50.4527   58.9533   62.5072 C   0  0  0  0  0  0  0  0  0  0  0  0
  -51.0918   57.7600   61.8267 C   0  0  0  0  0  0  0  0  0  0  0  0
  -50.2914   57.2615   60.6550 C   0  0  0  0  0  0  0  0  0  0  0  0
  -49.3329   58.2689   60.0732 C   0  0  0  0  0  0  0  0  0  0  0  0
  -48.6340   57.7577   58.8327 C   0  0  0  0  0  0  0  0  0  0  0  0
  -47.1360   57.8816   58.8532 C   0  0  0  0  0  0  0  0  0  0  0  0
  -46.5316   57.8516   57.5067 C   0  0  0  0  0  0  0  0  0  0  0  0
  -47.2269   56.9622   56.5783 C   0  0  0  0  0  0  0  0  0  0  0  0
  -42.8744   58.1516   64.1843 O   0  0  0  0  0  0  0  0  0  0  0  0
  -41.5893   58.7839   64.3761 C   0  0  0  0  0  0  0  0  0  0  0  0
  -41.4363   59.8174   63.2840 C   0  0  0  0  0  0  0  0  0  0  0  0
  -40.6699   60.9178   63.7740 O   0  0  0  0  0  0  0  0  0  0  0  0
  -39.7757   60.6153   63.9968 H   0  0  0  0  0  0  0  0  0  0  0  0
  -40.7904   59.3154   62.0154 C   0  0  0  0  0  0  0  0  0  0  0  0
  -39.7492   60.2372   61.6347 O   0  0  0  0  0  0  0  0  0  0  0  0
  -38.6867   59.8112   60.5306 P   0  0  0  0  0  0  0  0  0  0  0  0
  -39.3923   59.7979   59.2332 O   0  0  0  0  0  0  0  0  0  0  0  0
  -37.5147   60.6919   60.7030 O   0  0  0  0  0  0  0  0  0  0  0  0
  -37.7695   61.6092   60.5175 H   0  0  0  0  0  0  0  0  0  0  0  0
  -38.2114   58.3308   60.8458 O   0  0  0  0  0  0  0  0  0  0  0  0
  -36.8330   58.0820   61.2088 C   0  0  0  0  0  0  0  0  0  0  0  0
  -36.8774   57.3828   62.5485 C   0  0  0  0  0  0  0  0  0  0  0  0
  -36.5798   58.2414   63.7617 N   0  0  0  0  0  0  0  0  0  0  0  0
  -37.8411   58.7129   64.4110 C   0  0  0  0  0  0  0  0  0  0  0  0
  -35.7814   59.4352   63.3460 C   0  0  0  0  0  0  0  0  0  0  0  0
  -35.7966   57.4464   64.7586 C   0  0  0  0  0  0  0  0  0  0  0  0
 34 33  1  0  0  0
 34 35  1  0  0  0
 34 36  1  0  0  0
 34 37  1  0  0  0
 22 23  1  0  0  0
 22 25  1  0  0  0
 22 21  1  0  0  0
 27 26  1  0  0  0
 27 28  2  0  0  0
 27 31  1  0  0  0
 27 29  1  0  0  0
 25 26  1  0  0  0
 32 33  1  0  0  0
 32 31  1  0  0  0
 20 21  1  0  0  0
 20  2  1  0  0  0
  1  2  2  0  0  0
  2  3  1  0  0  0
  3  4  1  0  0  0
  4  5  1  0  0  0
  5  6  1  0  0  0
  6  7  1  0  0  0
  7  8  1  0  0  0
  8  9  1  0  0  0
  9 10  1  0  0  0
 10 11  2  0  0  0
 11 12  1  0  0  0
 12 13  1  0  0  0
 13 14  1  0  0  0
 14 15  1  0  0  0
 15 16  1  0  0  0
 16 17  1  0  0  0
 17 18  1  0  0  0
 18 19  1  0  0  0
 23 24  1  0  0  0
 29 30  1  0  0  0
M  CHG 1  28  -1
M  END
> <minimizedAffinity>
-8.55169

> <CNNscore>
0.6946923733

> <CNNaffinity>
6.7817077637

> <CNN_VS>
4.7112007141

> <CNNaffinity_variance>
0.2744522989

$$$$



 37 36  0  0  0  0  0  0  0  0999 V2000
  -41.0831   61.4176   65.3158 O   0  0  0  0  0  0  0  0  0  0  0  0
  -40.7903   60.6681   66.1965 C   0  0  0  0  0  0  0  0  0  0  0  0
  -41.7702   59.8501   66.9723 C   0  0  0  0  0  0  0  0  0  0  0  0
  -42.1786   58.5783   66.2530 C   0  0  0  0  0  0  0  0  0  0  0  0
  -43.6348   58.2240   66.4636 C   0  0  0  0  0  0  0  0  0  0  0  0
  -44.3901   57.9001   65.1961 C   0  0  0  0  0  0  0  0  0  0  0  0
  -45.8191   57.4801   65.4276 C   0  0  0  0  0  0  0  0  0  0  0  0
  -46.5696   58.4526   66.2973 C   0  0  0  0  0  0  0  0  0  0  0  0
  -47.7859   59.0694   65.6725 C   0  0  0  0  0  0  0  0  0  0  0  0
  -48.9492   58.1707   65.6507 C   0  0  0  0  0  0  0  0  0  0  0  0
  -50.2227   58.4967   65.6304 C   0  0  0  0  0  0  0  0  0  0  0  0
  -50.8173   59.8569   65.6012 C   0  0  0  0  0  0  0  0  0  0  0  0
  -51.1291   60.4040   64.2233 C   0  0  0  0  0  0  0  0  0  0  0  0
  -51.2127   59.3280   63.1758 C   0  0  0  0  0  0  0  0  0  0  0  0
  -50.1434   59.3969   62.1158 C   0  0  0  0  0  0  0  0  0  0  0  0
  -49.8800   58.0558   61.4672 C   0  0  0  0  0  0  0  0  0  0  0  0
  -49.9970   58.0432   59.9685 C   0  0  0  0  0  0  0  0  0  0  0  0
  -48.9284   57.2677   59.3084 C   0  0  0  0  0  0  0  0  0  0  0  0
  -47.7461   58.0650   58.9881 C   0  0  0  0  0  0  0  0  0  0  0  0
  -39.5406   60.4659   66.6137 O   0  0  0  0  0  0  0  0  0  0  0  0
  -38.6690   59.6912   65.7603 C   0  0  0  0  0  0  0  0  0  0  0  0
  -37.6789   60.6542   65.1465 C   0  0  0  0  0  0  0  0  0  0  0  0
  -37.5452   61.8000   65.9877 O   0  0  0  0  0  0  0  0  0  0  0  0
  -37.1766   61.5313   66.8438 H   0  0  0  0  0  0  0  0  0  0  0  0
  -36.3037   60.0841   64.8973 C   0  0  0  0  0  0  0  0  0  0  0  0
  -35.7404   60.7338   63.7399 O   0  0  0  0  0  0  0  0  0  0  0  0
  -34.5922   61.8180   63.9277 P   0  0  0  0  0  0  0  0  0  0  0  0
  -34.4275   62.0269   65.3804 O   0  0  0  0  0  0  0  0  0  0  0  0
  -33.4369   61.3594   63.1314 O   0  0  0  0  0  0  0  0  0  0  0  0
  -33.1049   60.5237   63.4949 H   0  0  0  0  0  0  0  0  0  0  0  0
  -35.0900   63.1824   63.2891 O   0  0  0  0  0  0  0  0  0  0  0  0
  -35.0813   64.3915   64.0838 C   0  0  0  0  0  0  0  0  0  0  0  0
  -34.1347   65.3401   63.3839 C   0  0  0  0  0  0  0  0  0  0  0  0
  -32.7549   65.4812   63.9954 N   0  0  0  0  0  0  0  0  0  0  0  0
  -32.7738   65.1440   65.4517 C   0  0  0  0  0  0  0  0  0  0  0  0
  -32.2794   66.8898   63.8373 C   0  0  0  0  0  0  0  0  0  0  0  0
  -31.8027   64.5577   63.3027 C   0  0  0  0  0  0  0  0  0  0  0  0
 34 33  1  0  0  0
 34 35  1  0  0  0
 34 36  1  0  0  0
 34 37  1  0  0  0
 22 23  1  0  0  0
 22 25  1  0  0  0
 22 21  1  0  0  0
 27 26  1  0  0  0
 27 28  2  0  0  0
 27 31  1  0  0  0
 27 29  1  0  0  0
 25 26  1  0  0  0
 32 33  1  0  0  0
 32 31  1  0  0  0
 20 21  1  0  0  0
 20  2  1  0  0  0
  1  2  2  0  0  0
  2  3  1  0  0  0
  3  4  1  0  0  0
  4  5  1  0  0  0
  5  6  1  0  0  0
  6  7  1  0  0  0
  7  8  1  0  0  0
  8  9  1  0  0  0
  9 10  1  0  0  0
 10 11  2  0  0  0
 11 12  1  0  0  0
 12 13  1  0  0  0
 13 14  1  0  0  0
 14 15  1  0  0  0
 15 16  1  0  0  0
 16 17  1  0  0  0
 17 18  1  0  0  0
 18 19  1  0  0  0
 23 24  1  0  0  0
 29 30  1  0  0  0
M  CHG 1  28  -1
M  END
> <minimizedAffinity>
-7.91874

> <CNNscore>
0.6630542278

> <CNNaffinity>
6.1005401611

> <CNN_VS>
4.0449891090

> <CNNaffinity_variance>
0.2782156169

$$$$



 37 36  0  0  0  0  0  0  0  0999 V2000
  -43.0477   57.3017   66.6132 O   0  0  0  0  0  0  0  0  0  0  0  0
  -43.0670   57.6373   65.4687 C   0  0  0  0  0  0  0  0  0  0  0  0
  -44.2858   57.6300   64.6052 C   0  0  0  0  0  0  0  0  0  0  0  0
  -45.5695   57.4633   65.3963 C   0  0  0  0  0  0  0  0  0  0  0  0
  -46.5450   58.6005   65.1831 C   0  0  0  0  0  0  0  0  0  0  0  0
  -47.6622   58.6657   66.1978 C   0  0  0  0  0  0  0  0  0  0  0  0
  -48.8069   57.7293   65.9061 C   0  0  0  0  0  0  0  0  0  0  0  0
  -50.1431   58.4194   65.9680 C   0  0  0  0  0  0  0  0  0  0  0  0
  -50.1604   59.8348   65.4715 C   0  0  0  0  0  0  0  0  0  0  0  0
  -51.3245   60.1422   64.6279 C   0  0  0  0  0  0  0  0  0  0  0  0
  -51.4696   59.9243   63.3395 C   0  0  0  0  0  0  0  0  0  0  0  0
  -50.5049   59.2904   62.4057 C   0  0  0  0  0  0  0  0  0  0  0  0
  -50.8961   57.9193   61.8938 C   0  0  0  0  0  0  0  0  0  0  0  0
  -50.4020   57.6573   60.4976 C   0  0  0  0  0  0  0  0  0  0  0  0
  -49.0390   58.2254   60.1953 C   0  0  0  0  0  0  0  0  0  0  0  0
  -48.4824   57.7321   58.8779 C   0  0  0  0  0  0  0  0  0  0  0  0
  -47.0554   58.1204   58.6081 C   0  0  0  0  0  0  0  0  0  0  0  0
  -46.5750   57.6844   57.2821 C   0  0  0  0  0  0  0  0  0  0  0  0
  -47.5347   56.8487   56.5632 C   0  0  0  0  0  0  0  0  0  0  0  0
  -41.9931   58.0589   64.8011 O   0  0  0  0  0  0  0  0  0  0  0  0
  -42.0759   58.0971   63.3589 C   0  0  0  0  0  0  0  0  0  0  0  0
  -40.8742   57.3512   62.8259 C   0  0  0  0  0  0  0  0  0  0  0  0
  -40.9101   56.0002   63.2859 O   0  0  0  0  0  0  0  0  0  0  0  0
  -41.6940   55.5567   62.9257 H   0  0  0  0  0  0  0  0  0  0  0  0
  -40.7458   57.3384   61.3220 C   0  0  0  0  0  0  0  0  0  0  0  0
  -40.7088   58.7013   60.8530 O   0  0  0  0  0  0  0  0  0  0  0  0
  -39.3071   59.4013   60.5802 P   0  0  0  0  0  0  0  0  0  0  0  0
  -39.3598   59.9575   59.2131 O   0  0  0  0  0  0  0  0  0  0  0  0
  -39.0541   60.3087   61.7167 O   0  0  0  0  0  0  0  0  0  0  0  0
  -39.7267   61.0076   61.7283 H   0  0  0  0  0  0  0  0  0  0  0  0
  -38.1810   58.2842   60.6123 O   0  0  0  0  0  0  0  0  0  0  0  0
  -36.9735   58.5049   61.3785 C   0  0  0  0  0  0  0  0  0  0  0  0
  -37.0850   57.6118   62.5932 C   0  0  0  0  0  0  0  0  0  0  0  0
  -36.7525   58.2512   63.9268 N   0  0  0  0  0  0  0  0  0  0  0  0
  -37.9721   58.3799   64.7818 C   0  0  0  0  0  0  0  0  0  0  0  0
  -36.1823   59.6145   63.6995 C   0  0  0  0  0  0  0  0  0  0  0  0
  -35.7480   57.4098   64.6496 C   0  0  0  0  0  0  0  0  0  0  0  0
 34 33  1  0  0  0
 34 35  1  0  0  0
 34 36  1  0  0  0
 34 37  1  0  0  0
 22 23  1  0  0  0
 22 25  1  0  0  0
 22 21  1  0  0  0
 27 26  1  0  0  0
 27 28  2  0  0  0
 27 31  1  0  0  0
 27 29  1  0  0  0
 25 26  1  0  0  0
 32 33  1  0  0  0
 32 31  1  0  0  0
 20 21  1  0  0  0
 20  2  1  0  0  0
  1  2  2  0  0  0
  2  3  1  0  0  0
  3  4  1  0  0  0
  4  5  1  0  0  0
  5  6  1  0  0  0
  6  7  1  0  0  0
  7  8  1  0  0  0
  8  9  1  0  0  0
  9 10  1  0  0  0
 10 11  2  0  0  0
 11 12  1  0  0  0
 12 13  1  0  0  0
 13 14  1  0  0  0
 14 15  1  0  0  0
 15 16  1  0  0  0
 16 17  1  0  0  0
 17 18  1  0  0  0
 18 19  1  0  0  0
 23 24  1  0  0  0
 29 30  1  0  0  0
M  CHG 1  28  -1
M  END
> <minimizedAffinity>
-8.49005

> <CNNscore>
0.6563874483

> <CNNaffinity>
6.8307161331

> <CNN_VS>
4.4835963249

> <CNNaffinity_variance>
0.3132807314

$$$$



 37 36  0  0  0  0  0  0  0  0999 V2000
  -42.0708   59.4140   67.3015 O   0  0  0  0  0  0  0  0  0  0  0  0
  -42.1261   58.7130   66.3378 C   0  0  0  0  0  0  0  0  0  0  0  0
  -43.0537   57.5518   66.1881 C   0  0  0  0  0  0  0  0  0  0  0  0
  -44.5126   57.9370   66.3449 C   0  0  0  0  0  0  0  0  0  0  0  0
  -45.2787   57.8869   65.0407 C   0  0  0  0  0  0  0  0  0  0  0  0
  -46.7797   57.9610   65.1930 C   0  0  0  0  0  0  0  0  0  0  0  0
  -47.3815   59.2478   64.6887 C   0  0  0  0  0  0  0  0  0  0  0  0
  -48.4211   59.8013   65.6258 C   0  0  0  0  0  0  0  0  0  0  0  0
  -49.2770   60.8973   65.0633 C   0  0  0  0  0  0  0  0  0  0  0  0
  -50.7129   60.5824   65.0804 C   0  0  0  0  0  0  0  0  0  0  0  0
  -51.4466   60.0995   64.1021 C   0  0  0  0  0  0  0  0  0  0  0  0
  -51.0116   59.7252   62.7327 C   0  0  0  0  0  0  0  0  0  0  0  0
  -50.8658   58.2390   62.4771 C   0  0  0  0  0  0  0  0  0  0  0  0
  -49.5154   57.8739   61.9247 C   0  0  0  0  0  0  0  0  0  0  0  0
  -49.5201   57.4537   60.4772 C   0  0  0  0  0  0  0  0  0  0  0  0
  -48.6113   58.3076   59.6207 C   0  0  0  0  0  0  0  0  0  0  0  0
  -47.3612   57.6218   59.1446 C   0  0  0  0  0  0  0  0  0  0  0  0
  -46.8908   58.1141   57.8349 C   0  0  0  0  0  0  0  0  0  0  0  0
  -46.9670   57.1096   56.7759 C   0  0  0  0  0  0  0  0  0  0  0  0
  -41.3555   58.8696   65.2615 O   0  0  0  0  0  0  0  0  0  0  0  0
  -39.9247   58.8939   65.4626 C   0  0  0  0  0  0  0  0  0  0  0  0
  -39.4322   60.2395   64.9819 C   0  0  0  0  0  0  0  0  0  0  0  0
  -39.8327   61.2510   65.9063 O   0  0  0  0  0  0  0  0  0  0  0  0
  -39.4092   61.0910   66.7642 H   0  0  0  0  0  0  0  0  0  0  0  0
  -37.9391   60.3399   64.7843 C   0  0  0  0  0  0  0  0  0  0  0  0
  -37.4819   59.1420   64.1248 O   0  0  0  0  0  0  0  0  0  0  0  0
  -35.9547   59.0118   63.7007 P   0  0  0  0  0  0  0  0  0  0  0  0
  -35.5727   60.2871   63.0614 O   0  0  0  0  0  0  0  0  0  0  0  0
  -35.2167   58.5566   64.8954 O   0  0  0  0  0  0  0  0  0  0  0  0
  -35.2663   59.2371   65.5848 H   0  0  0  0  0  0  0  0  0  0  0  0
  -35.8391   57.8634   62.6122 O   0  0  0  0  0  0  0  0  0  0  0  0
  -34.7808   57.9132   61.6267 C   0  0  0  0  0  0  0  0  0  0  0  0
  -33.6896   57.0040   62.1448 C   0  0  0  0  0  0  0  0  0  0  0  0
  -32.2689   57.5113   61.9957 N   0  0  0  0  0  0  0  0  0  0  0  0
  -31.8641   58.3350   63.1757 C   0  0  0  0  0  0  0  0  0  0  0  0
  -32.1656   58.3552   60.7659 C   0  0  0  0  0  0  0  0  0  0  0  0
  -31.3319   56.3505   61.8783 C   0  0  0  0  0  0  0  0  0  0  0  0
 34 33  1  0  0  0
 34 35  1  0  0  0
 34 36  1  0  0  0
 34 37  1  0  0  0
 22 23  1  0  0  0
 22 25  1  0  0  0
 22 21  1  0  0  0
 27 26  1  0  0  0
 27 28  2  0  0  0
 27 31  1  0  0  0
 27 29  1  0  0  0
 25 26  1  0  0  0
 32 33  1  0  0  0
 32 31  1  0  0  0
 20 21  1  0  0  0
 20  2  1  0  0  0
  1  2  2  0  0  0
  2  3  1  0  0  0
  3  4  1  0  0  0
  4  5  1  0  0  0
  5  6  1  0  0  0
  6  7  1  0  0  0
  7  8  1  0  0  0
  8  9  1  0  0  0
  9 10  1  0  0  0
 10 11  2  0  0  0
 11 12  1  0  0  0
 12 13  1  0  0  0
 13 14  1  0  0  0
 14 15  1  0  0  0
 15 16  1  0  0  0
 16 17  1  0  0  0
 17 18  1  0  0  0
 18 19  1  0  0  0
 23 24  1  0  0  0
 29 30  1  0  0  0
M  CHG 1  28  -1
M  END
> <minimizedAffinity>
-8.11809

> <CNNscore>
0.6302990317

> <CNNaffinity>
6.1939530373

> <CNN_VS>
3.9040427208

> <CNNaffinity_variance>
0.2058062106

$$$$



 37 36  0  0  0  0  0  0  0  0999 V2000
  -41.9539   56.7968   64.8323 O   0  0  0  0  0  0  0  0  0  0  0  0
  -42.4472   57.8764   64.9513 C   0  0  0  0  0  0  0  0  0  0  0  0
  -43.9082   58.1583   64.8200 C   0  0  0  0  0  0  0  0  0  0  0  0
  -44.7278   57.5689   65.9524 C   0  0  0  0  0  0  0  0  0  0  0  0
  -46.1926   57.4182   65.6031 C   0  0  0  0  0  0  0  0  0  0  0  0
  -46.8079   58.6318   64.9470 C   0  0  0  0  0  0  0  0  0  0  0  0
  -48.0600   59.1241   65.6268 C   0  0  0  0  0  0  0  0  0  0  0  0
  -49.0378   58.0136   65.9028 C   0  0  0  0  0  0  0  0  0  0  0  0
  -50.4854   58.4047   65.8600 C   0  0  0  0  0  0  0  0  0  0  0  0
  -50.6940   59.8447   65.6502 C   0  0  0  0  0  0  0  0  0  0  0  0
  -51.1098   60.4513   64.5603 C   0  0  0  0  0  0  0  0  0  0  0  0
  -51.4985   59.8381   63.2652 C   0  0  0  0  0  0  0  0  0  0  0  0
  -50.3810   59.6846   62.2537 C   0  0  0  0  0  0  0  0  0  0  0  0
  -49.9505   58.2545   62.0757 C   0  0  0  0  0  0  0  0  0  0  0  0
  -50.5340   57.5672   60.8678 C   0  0  0  0  0  0  0  0  0  0  0  0
  -49.4728   56.9806   59.9632 C   0  0  0  0  0  0  0  0  0  0  0  0
  -48.0962   57.5562   60.1457 C   0  0  0  0  0  0  0  0  0  0  0  0
  -47.1802   57.2369   59.0329 C   0  0  0  0  0  0  0  0  0  0  0  0
  -46.9767   58.3525   58.1108 C   0  0  0  0  0  0  0  0  0  0  0  0
  -41.7533   58.9844   65.2114 O   0  0  0  0  0  0  0  0  0  0  0  0
  -40.3668   58.8308   65.5881 C   0  0  0  0  0  0  0  0  0  0  0  0
  -39.6715   60.1322   65.2605 C   0  0  0  0  0  0  0  0  0  0  0  0
  -40.0828   61.1379   66.1866 O   0  0  0  0  0  0  0  0  0  0  0  0
  -39.7996   60.8895   67.0805 H   0  0  0  0  0  0  0  0  0  0  0  0
  -38.1634   60.0695   65.2651 C   0  0  0  0  0  0  0  0  0  0  0  0
  -37.6673   60.8766   64.1781 O   0  0  0  0  0  0  0  0  0  0  0  0
  -36.8037   60.2000   63.0267 P   0  0  0  0  0  0  0  0  0  0  0  0
  -36.8042   58.7455   63.2831 O   0  0  0  0  0  0  0  0  0  0  0  0
  -37.3318   60.7044   61.7439 O   0  0  0  0  0  0  0  0  0  0  0  0
  -38.2471   60.4041   61.6305 H   0  0  0  0  0  0  0  0  0  0  0  0
  -35.3107   60.7205   63.1565 O   0  0  0  0  0  0  0  0  0  0  0  0
  -34.8019   61.1250   64.4492 C   0  0  0  0  0  0  0  0  0  0  0  0
  -33.9009   62.3103   64.1871 C   0  0  0  0  0  0  0  0  0  0  0  0
  -34.2547   63.5933   64.9127 N   0  0  0  0  0  0  0  0  0  0  0  0
  -35.3489   64.3276   64.2067 C   0  0  0  0  0  0  0  0  0  0  0  0
  -33.0514   64.4782   64.9797 C   0  0  0  0  0  0  0  0  0  0  0  0
  -34.7111   63.2742   66.3017 C   0  0  0  0  0  0  0  0  0  0  0  0
 34 33  1  0  0  0
 34 35  1  0  0  0
 34 36  1  0  0  0
 34 37  1  0  0  0
 22 23  1  0  0  0
 22 25  1  0  0  0
 22 21  1  0  0  0
 27 26  1  0  0  0
 27 28  2  0  0  0
 27 31  1  0  0  0
 27 29  1  0  0  0
 25 26  1  0  0  0
 32 33  1  0  0  0
 32 31  1  0  0  0
 20 21  1  0  0  0
 20  2  1  0  0  0
  1  2  2  0  0  0
  2  3  1  0  0  0
  3  4  1  0  0  0
  4  5  1  0  0  0
  5  6  1  0  0  0
  6  7  1  0  0  0
  7  8  1  0  0  0
  8  9  1  0  0  0
  9 10  1  0  0  0
 10 11  2  0  0  0
 11 12  1  0  0  0
 12 13  1  0  0  0
 13 14  1  0  0  0
 14 15  1  0  0  0
 15 16  1  0  0  0
 16 17  1  0  0  0
 17 18  1  0  0  0
 18 19  1  0  0  0
 23 24  1  0  0  0
 29 30  1  0  0  0
M  CHG 1  28  -1
M  END
> <minimizedAffinity>
-8.11696

> <CNNscore>
0.6270663142

> <CNNaffinity>
6.2381796837

> <CNN_VS>
3.9117522240

> <CNNaffinity_variance>
0.1973577291

$$$$



 37 36  0  0  0  0  0  0  0  0999 V2000
  -42.7967   56.5704   63.6191 O   0  0  0  0  0  0  0  0  0  0  0  0
  -42.4893   57.1073   64.6389 C   0  0  0  0  0  0  0  0  0  0  0  0
  -43.2882   57.0504   65.8997 C   0  0  0  0  0  0  0  0  0  0  0  0
  -44.4024   58.0791   65.9401 C   0  0  0  0  0  0  0  0  0  0  0  0
  -45.7531   57.4993   65.5796 C   0  0  0  0  0  0  0  0  0  0  0  0
  -46.7371   58.5021   65.0246 C   0  0  0  0  0  0  0  0  0  0  0  0
  -47.8725   58.8260   65.9616 C   0  0  0  0  0  0  0  0  0  0  0  0
  -48.9957   57.8283   65.8689 C   0  0  0  0  0  0  0  0  0  0  0  0
  -50.3772   58.4015   65.9827 C   0  0  0  0  0  0  0  0  0  0  0  0
  -50.4183   59.8612   65.8138 C   0  0  0  0  0  0  0  0  0  0  0  0
  -50.9232   60.5454   64.8110 C   0  0  0  0  0  0  0  0  0  0  0  0
  -51.6033   60.0229   63.5991 C   0  0  0  0  0  0  0  0  0  0  0  0
  -50.6877   59.5714   62.4796 C   0  0  0  0  0  0  0  0  0  0  0  0
  -50.6492   58.0755   62.3277 C   0  0  0  0  0  0  0  0  0  0  0  0
  -50.7601   57.5840   60.9072 C   0  0  0  0  0  0  0  0  0  0  0  0
  -49.4452   57.0675   60.3661 C   0  0  0  0  0  0  0  0  0  0  0  0
  -48.5936   58.0991   59.6801 C   0  0  0  0  0  0  0  0  0  0  0  0
  -48.0168   57.6238   58.4071 C   0  0  0  0  0  0  0  0  0  0  0  0
  -46.8023   58.3378   58.0180 C   0  0  0  0  0  0  0  0  0  0  0  0
  -41.3870   57.8421   64.7873 O   0  0  0  0  0  0  0  0  0  0  0  0
  -40.2235   57.4630   64.0187 C   0  0  0  0  0  0  0  0  0  0  0  0
  -39.1565   58.4987   64.2894 C   0  0  0  0  0  0  0  0  0  0  0  0
  -38.6755   58.3486   65.6252 O   0  0  0  0  0  0  0  0  0  0  0  0
  -38.2510   57.4817   65.7205 H   0  0  0  0  0  0  0  0  0  0  0  0
  -37.9749   58.4588   63.3510 C   0  0  0  0  0  0  0  0  0  0  0  0
  -36.8511   59.0856   64.0014 O   0  0  0  0  0  0  0  0  0  0  0  0
  -36.4772   60.5906   63.6484 P   0  0  0  0  0  0  0  0  0  0  0  0
  -36.8822   60.8199   62.2468 O   0  0  0  0  0  0  0  0  0  0  0  0
  -37.0558   61.4354   64.7117 O   0  0  0  0  0  0  0  0  0  0  0  0
  -38.0231   61.3668   64.6887 H   0  0  0  0  0  0  0  0  0  0  0  0
  -34.9003   60.7425   63.7346 O   0  0  0  0  0  0  0  0  0  0  0  0
  -34.3189   62.0371   64.0168 C   0  0  0  0  0  0  0  0  0  0  0  0
  -33.0216   62.0861   63.2419 C   0  0  0  0  0  0  0  0  0  0  0  0
  -32.4642   63.4665   62.9566 N   0  0  0  0  0  0  0  0  0  0  0  0
  -33.5127   64.3626   62.3801 C   0  0  0  0  0  0  0  0  0  0  0  0
  -31.3377   63.3589   61.9795 C   0  0  0  0  0  0  0  0  0  0  0  0
  -31.9596   64.0758   64.2269 C   0  0  0  0  0  0  0  0  0  0  0  0
 34 33  1  0  0  0
 34 35  1  0  0  0
 34 36  1  0  0  0
 34 37  1  0  0  0
 22 23  1  0  0  0
 22 25  1  0  0  0
 22 21  1  0  0  0
 27 26  1  0  0  0
 27 28  2  0  0  0
 27 31  1  0  0  0
 27 29  1  0  0  0
 25 26  1  0  0  0
 32 33  1  0  0  0
 32 31  1  0  0  0
 20 21  1  0  0  0
 20  2  1  0  0  0
  1  2  2  0  0  0
  2  3  1  0  0  0
  3  4  1  0  0  0
  4  5  1  0  0  0
  5  6  1  0  0  0
  6  7  1  0  0  0
  7  8  1  0  0  0
  8  9  1  0  0  0
  9 10  1  0  0  0
 10 11  2  0  0  0
 11 12  1  0  0  0
 12 13  1  0  0  0
 13 14  1  0  0  0
 14 15  1  0  0  0
 15 16  1  0  0  0
 16 17  1  0  0  0
 17 18  1  0  0  0
 18 19  1  0  0  0
 23 24  1  0  0  0
 29 30  1  0  0  0
M  CHG 1  28  -1
M  END
> <minimizedAffinity>
-7.91970

> <CNNscore>
0.5969426036

> <CNNaffinity>
6.1592555046

> <CNN_VS>
3.6767220497

> <CNNaffinity_variance>
0.2211909294

$$$$



 37 36  0  0  0  0  0  0  0  0999 V2000
  -42.9089   55.8695   64.7079 O   0  0  0  0  0  0  0  0  0  0  0  0
  -43.1591   57.0334   64.7833 C   0  0  0  0  0  0  0  0  0  0  0  0
  -44.1403   57.6278   65.7399 C   0  0  0  0  0  0  0  0  0  0  0  0
  -45.3422   58.2424   65.0476 C   0  0  0  0  0  0  0  0  0  0  0  0
  -46.6279   57.4933   65.3237 C   0  0  0  0  0  0  0  0  0  0  0  0
  -47.8524   58.3709   65.4350 C   0  0  0  0  0  0  0  0  0  0  0  0
  -48.9981   57.7290   66.1750 C   0  0  0  0  0  0  0  0  0  0  0  0
  -50.3190   58.3802   65.8641 C   0  0  0  0  0  0  0  0  0  0  0  0
  -50.2395   59.7950   65.3720 C   0  0  0  0  0  0  0  0  0  0  0  0
  -51.3344   60.1574   64.4605 C   0  0  0  0  0  0  0  0  0  0  0  0
  -51.4603   59.8551   63.1872 C   0  0  0  0  0  0  0  0  0  0  0  0
  -50.5409   59.0499   62.3441 C   0  0  0  0  0  0  0  0  0  0  0  0
  -51.1478   57.8138   61.7125 C   0  0  0  0  0  0  0  0  0  0  0  0
  -50.1528   57.0245   60.9068 C   0  0  0  0  0  0  0  0  0  0  0  0
  -49.4198   57.8203   59.8574 C   0  0  0  0  0  0  0  0  0  0  0  0
  -47.9455   57.4863   59.7985 C   0  0  0  0  0  0  0  0  0  0  0  0
  -47.5492   56.5643   58.6793 C   0  0  0  0  0  0  0  0  0  0  0  0
  -47.2452   57.2741   57.4212 C   0  0  0  0  0  0  0  0  0  0  0  0
  -46.1699   58.2551   57.5537 C   0  0  0  0  0  0  0  0  0  0  0  0
  -42.5974   57.9643   64.0121 O   0  0  0  0  0  0  0  0  0  0  0  0
  -41.6503   57.5222   63.0143 C   0  0  0  0  0  0  0  0  0  0  0  0
  -40.8548   58.7352   62.5898 C   0  0  0  0  0  0  0  0  0  0  0  0
  -40.9303   58.8815   61.1717 O   0  0  0  0  0  0  0  0  0  0  0  0
  -41.8500   59.0483   60.9123 H   0  0  0  0  0  0  0  0  0  0  0  0
  -41.2840   60.0352   63.2256 C   0  0  0  0  0  0  0  0  0  0  0  0
  -40.1796   60.5585   63.9906 O   0  0  0  0  0  0  0  0  0  0  0  0
  -40.2504   60.5519   65.5794 P   0  0  0  0  0  0  0  0  0  0  0  0
  -41.1182   61.6782   65.9787 O   0  0  0  0  0  0  0  0  0  0  0  0
  -40.6184   59.1812   65.9853 O   0  0  0  0  0  0  0  0  0  0  0  0
  -41.5077   58.9747   65.6573 H   0  0  0  0  0  0  0  0  0  0  0  0
  -38.7934   60.8321   66.1413 O   0  0  0  0  0  0  0  0  0  0  0  0
  -37.6534   60.7440   65.2544 C   0  0  0  0  0  0  0  0  0  0  0  0
  -37.1019   59.3470   65.4268 C   0  0  0  0  0  0  0  0  0  0  0  0
  -36.4461   58.7311   64.2068 N   0  0  0  0  0  0  0  0  0  0  0  0
  -35.3544   57.7884   64.5998 C   0  0  0  0  0  0  0  0  0  0  0  0
  -35.8608   59.8113   63.3547 C   0  0  0  0  0  0  0  0  0  0  0  0
  -37.4679   57.9769   63.4153 C   0  0  0  0  0  0  0  0  0  0  0  0
 34 33  1  0  0  0
 34 35  1  0  0  0
 34 36  1  0  0  0
 34 37  1  0  0  0
 22 23  1  0  0  0
 22 25  1  0  0  0
 22 21  1  0  0  0
 27 26  1  0  0  0
 27 28  2  0  0  0
 27 31  1  0  0  0
 27 29  1  0  0  0
 25 26  1  0  0  0
 32 33  1  0  0  0
 32 31  1  0  0  0
 20 21  1  0  0  0
 20  2  1  0  0  0
  1  2  2  0  0  0
  2  3  1  0  0  0
  3  4  1  0  0  0
  4  5  1  0  0  0
  5  6  1  0  0  0
  6  7  1  0  0  0
  7  8  1  0  0  0
  8  9  1  0  0  0
  9 10  1  0  0  0
 10 11  2  0  0  0
 11 12  1  0  0  0
 12 13  1  0  0  0
 13 14  1  0  0  0
 14 15  1  0  0  0
 15 16  1  0  0  0
 16 17  1  0  0  0
 17 18  1  0  0  0
 18 19  1  0  0  0
 23 24  1  0  0  0
 29 30  1  0  0  0
M  CHG 1  28  -1
M  END
> <minimizedAffinity>
-8.22725

> <CNNscore>
0.5950452685

> <CNNaffinity>
6.6524300575

> <CNN_VS>
3.9584970474

> <CNNaffinity_variance>
0.3505567908

$$$$
