


 37 36  0  0  0  0  0  0  0  0999 V2000
  -42.3639   58.1994   65.7974 O   0  0  0  0  0  0  0  0  0  0  0  0
  -42.8197   59.3008   65.7502 C   0  0  0  0  0  0  0  0  0  0  0  0
  -44.2225   59.6197   65.3484 C   0  0  0  0  0  0  0  0  0  0  0  0
  -45.2369   58.6493   65.9236 C   0  0  0  0  0  0  0  0  0  0  0  0
  -45.9100   57.8038   64.8641 C   0  0  0  0  0  0  0  0  0  0  0  0
  -47.2875   58.2789   64.4657 C   0  0  0  0  0  0  0  0  0  0  0  0
  -47.6114   59.6741   64.9353 C   0  0  0  0  0  0  0  0  0  0  0  0
  -48.8969   59.7331   65.7160 C   0  0  0  0  0  0  0  0  0  0  0  0
  -50.0710   59.0537   65.0756 C   0  0  0  0  0  0  0  0  0  0  0  0
  -50.9588   59.9789   64.3567 C   0  0  0  0  0  0  0  0  0  0  0  0
  -50.9505   60.2769   63.0761 C   0  0  0  0  0  0  0  0  0  0  0  0
  -50.0571   59.7397   62.0189 C   0  0  0  0  0  0  0  0  0  0  0  0
  -50.4135   58.3613   61.5009 C   0  0  0  0  0  0  0  0  0  0  0  0
  -49.2064   57.4884   61.2931 C   0  0  0  0  0  0  0  0  0  0  0  0
  -49.3792   56.4128   60.2514 C   0  0  0  0  0  0  0  0  0  0  0  0
  -48.1231   56.1812   59.4406 C   0  0  0  0  0  0  0  0  0  0  0  0
  -47.9555   57.0938   58.2578 C   0  0  0  0  0  0  0  0  0  0  0  0
  -48.2089   56.4245   56.9667 C   0  0  0  0  0  0  0  0  0  0  0  0
  -47.2987   55.3121   56.7013 C   0  0  0  0  0  0  0  0  0  0  0  0
  -42.1292   60.4024   66.0443 O   0  0  0  0  0  0  0  0  0  0  0  0
  -40.6924   60.3481   65.9006 C   0  0  0  0  0  0  0  0  0  0  0  0
  -40.2707   61.6086   65.1812 C   0  0  0  0  0  0  0  0  0  0  0  0
  -38.9253   61.9306   65.5338 O   0  0  0  0  0  0  0  0  0  0  0  0
  -38.3334   61.2256   65.2282 H   0  0  0  0  0  0  0  0  0  0  0  0
  -40.3663   61.5474   63.6760 C   0  0  0  0  0  0  0  0  0  0  0  0
  -39.6039   60.4143   63.2135 O   0  0  0  0  0  0  0  0  0  0  0  0
  -38.9124   60.4631   61.7822 P   0  0  0  0  0  0  0  0  0  0  0  0
  -39.9494   60.8738   60.8142 O   0  0  0  0  0  0  0  0  0  0  0  0
  -37.6945   61.2851   61.9237 O   0  0  0  0  0  0  0  0  0  0  0  0
  -37.9429   62.1941   62.1538 H   0  0  0  0  0  0  0  0  0  0  0  0
  -38.4456   58.9939   61.4073 O   0  0  0  0  0  0  0  0  0  0  0  0
  -37.1081   58.5579   61.7460 C   0  0  0  0  0  0  0  0  0  0  0  0
  -37.2347   57.8126   63.0553 C   0  0  0  0  0  0  0  0  0  0  0  0
  -36.2984   58.2465   64.1656 N   0  0  0  0  0  0  0  0  0  0  0  0
  -35.2209   59.1414   63.6431 C   0  0  0  0  0  0  0  0  0  0  0  0
  -35.6621   57.0423   64.7824 C   0  0  0  0  0  0  0  0  0  0  0  0
  -37.0705   58.9875   65.2116 C   0  0  0  0  0  0  0  0  0  0  0  0
 34 33  1  0  0  0
 34 35  1  0  0  0
 34 36  1  0  0  0
 34 37  1  0  0  0
 22 23  1  0  0  0
 22 25  1  0  0  0
 22 21  1  0  0  0
 27 26  1  0  0  0
 27 28  2  0  0  0
 27 31  1  0  0  0
 27 29  1  0  0  0
 25 26  1  0  0  0
 32 33  1  0  0  0
 32 31  1  0  0  0
 20 21  1  0  0  0
 20  2  1  0  0  0
  1  2  2  0  0  0
  2  3  1  0  0  0
  3  4  1  0  0  0
  4  5  1  0  0  0
  5  6  1  0  0  0
  6  7  1  0  0  0
  7  8  1  0  0  0
  8  9  1  0  0  0
  9 10  1  0  0  0
 10 11  2  0  0  0
 11 12  1  0  0  0
 12 13  1  0  0  0
 13 14  1  0  0  0
 14 15  1  0  0  0
 15 16  1  0  0  0
 16 17  1  0  0  0
 17 18  1  0  0  0
 18 19  1  0  0  0
 23 24  1  0  0  0
 29 30  1  0  0  0
M  CHG 1  28  -1
M  END
> <minimizedAffinity>
-8.23774

$$$$



 37 36  0  0  0  0  0  0  0  0999 V2000
  -42.7484   60.0152   67.0186 O   0  0  0  0  0  0  0  0  0  0  0  0
  -42.4685   59.4166   66.0255 C   0  0  0  0  0  0  0  0  0  0  0  0
  -43.0794   58.1148   65.6215 C   0  0  0  0  0  0  0  0  0  0  0  0
  -44.3969   58.2827   64.8883 C   0  0  0  0  0  0  0  0  0  0  0  0
  -45.5732   57.7154   65.6531 C   0  0  0  0  0  0  0  0  0  0  0  0
  -46.4839   58.7550   66.2626 C   0  0  0  0  0  0  0  0  0  0  0  0
  -47.6043   59.1930   65.3541 C   0  0  0  0  0  0  0  0  0  0  0  0
  -48.4060   58.0317   64.8305 C   0  0  0  0  0  0  0  0  0  0  0  0
  -49.8856   58.1134   65.0637 C   0  0  0  0  0  0  0  0  0  0  0  0
  -50.3714   59.4885   65.2488 C   0  0  0  0  0  0  0  0  0  0  0  0
  -50.9697   60.2602   64.3684 C   0  0  0  0  0  0  0  0  0  0  0  0
  -51.3309   59.9359   62.9652 C   0  0  0  0  0  0  0  0  0  0  0  0
  -50.2809   60.2722   61.9261 C   0  0  0  0  0  0  0  0  0  0  0  0
  -49.6483   59.0488   61.3218 C   0  0  0  0  0  0  0  0  0  0  0  0
  -50.4092   57.7681   61.5514 C   0  0  0  0  0  0  0  0  0  0  0  0
  -50.5007   56.9146   60.3057 C   0  0  0  0  0  0  0  0  0  0  0  0
  -49.9340   57.5440   59.0637 C   0  0  0  0  0  0  0  0  0  0  0  0
  -48.6611   56.9340   58.6316 C   0  0  0  0  0  0  0  0  0  0  0  0
  -48.3255   55.7130   59.3617 C   0  0  0  0  0  0  0  0  0  0  0  0
  -41.5604   59.8297   65.1415 O   0  0  0  0  0  0  0  0  0  0  0  0
  -40.1889   59.9225   65.5871 C   0  0  0  0  0  0  0  0  0  0  0  0
  -39.6281   61.2110   65.0307 C   0  0  0  0  0  0  0  0  0  0  0  0
  -39.9792   62.2942   65.8918 O   0  0  0  0  0  0  0  0  0  0  0  0
  -39.5664   62.1640   66.7599 H   0  0  0  0  0  0  0  0  0  0  0  0
  -38.1314   61.2245   64.8354 C   0  0  0  0  0  0  0  0  0  0  0  0
  -37.5812   62.3287   65.5817 O   0  0  0  0  0  0  0  0  0  0  0  0
  -36.0230   62.3653   65.8982 P   0  0  0  0  0  0  0  0  0  0  0  0
  -35.8590   63.0730   67.1840 O   0  0  0  0  0  0  0  0  0  0  0  0
  -35.5284   60.9803   65.7711 O   0  0  0  0  0  0  0  0  0  0  0  0
  -35.9459   60.4246   66.4477 H   0  0  0  0  0  0  0  0  0  0  0  0
  -35.3088   63.2236   64.7711 O   0  0  0  0  0  0  0  0  0  0  0  0
  -33.9829   62.8569   64.3224 C   0  0  0  0  0  0  0  0  0  0  0  0
  -33.0307   63.7830   65.0444 C   0  0  0  0  0  0  0  0  0  0  0  0
  -31.9525   64.4280   64.1963 N   0  0  0  0  0  0  0  0  0  0  0  0
  -30.7155   64.6798   64.9972 C   0  0  0  0  0  0  0  0  0  0  0  0
  -32.4498   65.7329   63.6624 C   0  0  0  0  0  0  0  0  0  0  0  0
  -31.6072   63.5260   63.0532 C   0  0  0  0  0  0  0  0  0  0  0  0
 34 33  1  0  0  0
 34 35  1  0  0  0
 34 36  1  0  0  0
 34 37  1  0  0  0
 22 23  1  0  0  0
 22 25  1  0  0  0
 22 21  1  0  0  0
 27 26  1  0  0  0
 27 28  2  0  0  0
 27 31  1  0  0  0
 27 29  1  0  0  0
 25 26  1  0  0  0
 32 33  1  0  0  0
 32 31  1  0  0  0
 20 21  1  0  0  0
 20  2  1  0  0  0
  1  2  2  0  0  0
  2  3  1  0  0  0
  3  4  1  0  0  0
  4  5  1  0  0  0
  5  6  1  0  0  0
  6  7  1  0  0  0
  7  8  1  0  0  0
  8  9  1  0  0  0
  9 10  1  0  0  0
 10 11  2  0  0  0
 11 12  1  0  0  0
 12 13  1  0  0  0
 13 14  1  0  0  0
 14 15  1  0  0  0
 15 16  1  0  0  0
 16 17  1  0  0  0
 17 18  1  0  0  0
 18 19  1  0  0  0
 23 24  1  0  0  0
 29 30  1  0  0  0
M  CHG 1  28  -1
M  END
> <minimizedAffinity>
-8.15838

$$$$



 37 36  0  0  0  0  0  0  0  0999 V2000
  -42.1726   59.3011   66.9410 O   0  0  0  0  0  0  0  0  0  0  0  0
  -42.3359   58.7319   65.9055 C   0  0  0  0  0  0  0  0  0  0  0  0
  -43.0275   57.4156   65.7632 C   0  0  0  0  0  0  0  0  0  0  0  0
  -44.4192   57.5402   65.1723 C   0  0  0  0  0  0  0  0  0  0  0  0
  -45.4996   57.0172   66.0941 C   0  0  0  0  0  0  0  0  0  0  0  0
  -46.8100   57.7640   66.0099 C   0  0  0  0  0  0  0  0  0  0  0  0
  -47.0495   58.4281   64.6780 C   0  0  0  0  0  0  0  0  0  0  0  0
  -48.3110   57.9449   64.0143 C   0  0  0  0  0  0  0  0  0  0  0  0
  -49.5251   57.8998   64.8942 C   0  0  0  0  0  0  0  0  0  0  0  0
  -50.0897   59.2274   65.1767 C   0  0  0  0  0  0  0  0  0  0  0  0
  -50.7449   60.0188   64.3562 C   0  0  0  0  0  0  0  0  0  0  0  0
  -51.1047   59.7683   62.9377 C   0  0  0  0  0  0  0  0  0  0  0  0
  -50.0531   60.1568   61.9187 C   0  0  0  0  0  0  0  0  0  0  0  0
  -49.9173   59.1492   60.8104 C   0  0  0  0  0  0  0  0  0  0  0  0
  -50.6276   57.8428   61.0569 C   0  0  0  0  0  0  0  0  0  0  0  0
  -50.1828   56.7511   60.1087 C   0  0  0  0  0  0  0  0  0  0  0  0
  -48.8135   56.1941   60.3818 C   0  0  0  0  0  0  0  0  0  0  0  0
  -47.8638   56.4164   59.2737 C   0  0  0  0  0  0  0  0  0  0  0  0
  -48.5094   56.8373   58.0319 C   0  0  0  0  0  0  0  0  0  0  0  0
  -41.9121   59.1951   64.7296 O   0  0  0  0  0  0  0  0  0  0  0  0
  -42.5236   60.4048   64.2290 C   0  0  0  0  0  0  0  0  0  0  0  0
  -41.5137   61.0694   63.3218 C   0  0  0  0  0  0  0  0  0  0  0  0
  -41.3778   62.4430   63.6863 O   0  0  0  0  0  0  0  0  0  0  0  0
  -41.0241   62.5049   64.5874 H   0  0  0  0  0  0  0  0  0  0  0  0
  -40.1422   60.4391   63.3225 C   0  0  0  0  0  0  0  0  0  0  0  0
  -39.2019   61.3868   63.8672 O   0  0  0  0  0  0  0  0  0  0  0  0
  -38.6703   61.2010   65.3545 P   0  0  0  0  0  0  0  0  0  0  0  0
  -37.6787   62.2684   65.5963 O   0  0  0  0  0  0  0  0  0  0  0  0
  -39.8589   61.1126   66.2253 O   0  0  0  0  0  0  0  0  0  0  0  0
  -40.3440   61.9521   66.1965 H   0  0  0  0  0  0  0  0  0  0  0  0
  -37.9202   59.8057   65.4417 O   0  0  0  0  0  0  0  0  0  0  0  0
  -36.5309   59.7124   65.0483 C   0  0  0  0  0  0  0  0  0  0  0  0
  -36.5397   59.3807   63.5733 C   0  0  0  0  0  0  0  0  0  0  0  0
  -36.5151   57.9072   63.2186 N   0  0  0  0  0  0  0  0  0  0  0  0
  -37.8911   57.3994   62.9294 C   0  0  0  0  0  0  0  0  0  0  0  0
  -35.9483   57.1271   64.3611 C   0  0  0  0  0  0  0  0  0  0  0  0
  -35.6631   57.6976   62.0064 C   0  0  0  0  0  0  0  0  0  0  0  0
 34 33  1  0  0  0
 34 35  1  0  0  0
 34 36  1  0  0  0
 34 37  1  0  0  0
 22 23  1  0  0  0
 22 25  1  0  0  0
 22 21  1  0  0  0
 27 26  1  0  0  0
 27 28  2  0  0  0
 27 31  1  0  0  0
 27 29  1  0  0  0
 25 26  1  0  0  0
 32 33  1  0  0  0
 32 31  1  0  0  0
 20 21  1  0  0  0
 20  2  1  0  0  0
  1  2  2  0  0  0
  2  3  1  0  0  0
  3  4  1  0  0  0
  4  5  1  0  0  0
  5  6  1  0  0  0
  6  7  1  0  0  0
  7  8  1  0  0  0
  8  9  1  0  0  0
  9 10  1  0  0  0
 10 11  2  0  0  0
 11 12  1  0  0  0
 12 13  1  0  0  0
 13 14  1  0  0  0
 14 15  1  0  0  0
 15 16  1  0  0  0
 16 17  1  0  0  0
 17 18  1  0  0  0
 18 19  1  0  0  0
 23 24  1  0  0  0
 29 30  1  0  0  0
M  CHG 1  28  -1
M  END
> <minimizedAffinity>
-8.15144

$$$$



 37 36  0  0  0  0  0  0  0  0999 V2000
  -42.5509   60.3896   67.2859 O   0  0  0  0  0  0  0  0  0  0  0  0
  -42.1672   59.9680   66.2381 C   0  0  0  0  0  0  0  0  0  0  0  0
  -42.6331   58.6916   65.6176 C   0  0  0  0  0  0  0  0  0  0  0  0
  -43.8904   58.8634   64.7862 C   0  0  0  0  0  0  0  0  0  0  0  0
  -44.8590   57.7104   64.9378 C   0  0  0  0  0  0  0  0  0  0  0  0
  -46.3045   58.0699   64.6866 C   0  0  0  0  0  0  0  0  0  0  0  0
  -46.9941   58.6916   65.8741 C   0  0  0  0  0  0  0  0  0  0  0  0
  -47.2359   60.1658   65.6906 C   0  0  0  0  0  0  0  0  0  0  0  0
  -48.4662   60.5244   64.9108 C   0  0  0  0  0  0  0  0  0  0  0  0
  -49.6324   59.6956   65.2485 C   0  0  0  0  0  0  0  0  0  0  0  0
  -50.7435   59.5449   64.5619 C   0  0  0  0  0  0  0  0  0  0  0  0
  -51.1004   60.1545   63.2560 C   0  0  0  0  0  0  0  0  0  0  0  0
  -50.4353   59.5364   62.0432 C   0  0  0  0  0  0  0  0  0  0  0  0
  -50.3656   58.0359   62.1199 C   0  0  0  0  0  0  0  0  0  0  0  0
  -51.0011   57.3160   60.9582 C   0  0  0  0  0  0  0  0  0  0  0  0
  -49.9921   56.5666   60.1161 C   0  0  0  0  0  0  0  0  0  0  0  0
  -49.5110   57.3046   58.8980 C   0  0  0  0  0  0  0  0  0  0  0  0
  -48.3864   56.6328   58.2176 C   0  0  0  0  0  0  0  0  0  0  0  0
  -47.3274   56.2064   59.1302 C   0  0  0  0  0  0  0  0  0  0  0  0
  -41.2583   60.5811   65.4799 O   0  0  0  0  0  0  0  0  0  0  0  0
  -39.9090   60.0645   65.5059 C   0  0  0  0  0  0  0  0  0  0  0  0
  -38.9780   61.2509   65.4059 C   0  0  0  0  0  0  0  0  0  0  0  0
  -39.6415   62.4188   65.8895 O   0  0  0  0  0  0  0  0  0  0  0  0
  -39.8481   62.3069   66.8306 H   0  0  0  0  0  0  0  0  0  0  0  0
  -37.6727   61.1031   66.1495 C   0  0  0  0  0  0  0  0  0  0  0  0
  -36.9334   62.3350   66.0283 O   0  0  0  0  0  0  0  0  0  0  0  0
  -35.4541   62.4244   66.6052 P   0  0  0  0  0  0  0  0  0  0  0  0
  -34.7874   63.5469   65.9148 O   0  0  0  0  0  0  0  0  0  0  0  0
  -35.5700   62.4517   68.0765 O   0  0  0  0  0  0  0  0  0  0  0  0
  -36.0339   63.2587   68.3494 H   0  0  0  0  0  0  0  0  0  0  0  0
  -34.6905   61.0882   66.2196 O   0  0  0  0  0  0  0  0  0  0  0  0
  -34.2861   60.8633   64.8486 C   0  0  0  0  0  0  0  0  0  0  0  0
  -34.1814   59.3636   64.6886 C   0  0  0  0  0  0  0  0  0  0  0  0
  -35.3363   58.6839   63.9803 N   0  0  0  0  0  0  0  0  0  0  0  0
  -36.1832   57.9165   64.9441 C   0  0  0  0  0  0  0  0  0  0  0  0
  -34.8052   57.7372   62.9522 C   0  0  0  0  0  0  0  0  0  0  0  0
  -36.1891   59.7143   63.3091 C   0  0  0  0  0  0  0  0  0  0  0  0
 34 33  1  0  0  0
 34 35  1  0  0  0
 34 36  1  0  0  0
 34 37  1  0  0  0
 22 23  1  0  0  0
 22 25  1  0  0  0
 22 21  1  0  0  0
 27 26  1  0  0  0
 27 28  2  0  0  0
 27 31  1  0  0  0
 27 29  1  0  0  0
 25 26  1  0  0  0
 32 33  1  0  0  0
 32 31  1  0  0  0
 20 21  1  0  0  0
 20  2  1  0  0  0
  1  2  2  0  0  0
  2  3  1  0  0  0
  3  4  1  0  0  0
  4  5  1  0  0  0
  5  6  1  0  0  0
  6  7  1  0  0  0
  7  8  1  0  0  0
  8  9  1  0  0  0
  9 10  1  0  0  0
 10 11  2  0  0  0
 11 12  1  0  0  0
 12 13  1  0  0  0
 13 14  1  0  0  0
 14 15  1  0  0  0
 15 16  1  0  0  0
 16 17  1  0  0  0
 17 18  1  0  0  0
 18 19  1  0  0  0
 23 24  1  0  0  0
 29 30  1  0  0  0
M  CHG 1  28  -1
M  END
> <minimizedAffinity>
-8.00388

$$$$



 37 36  0  0  0  0  0  0  0  0999 V2000
  -42.0550   58.0358   65.9436 O   0  0  0  0  0  0  0  0  0  0  0  0
  -42.8519   58.8721   65.6460 C   0  0  0  0  0  0  0  0  0  0  0  0
  -44.1590   58.5960   64.9779 C   0  0  0  0  0  0  0  0  0  0  0  0
  -45.2970   59.4266   65.5404 C   0  0  0  0  0  0  0  0  0  0  0  0
  -46.5853   58.6444   65.6780 C   0  0  0  0  0  0  0  0  0  0  0  0
  -47.5140   58.7537   64.4916 C   0  0  0  0  0  0  0  0  0  0  0  0
  -48.6162   57.7255   64.4826 C   0  0  0  0  0  0  0  0  0  0  0  0
  -49.8592   58.2104   65.1792 C   0  0  0  0  0  0  0  0  0  0  0  0
  -50.1459   59.6761   65.0389 C   0  0  0  0  0  0  0  0  0  0  0  0
  -51.1582   59.9767   64.0162 C   0  0  0  0  0  0  0  0  0  0  0  0
  -50.9647   60.2830   62.7523 C   0  0  0  0  0  0  0  0  0  0  0  0
  -49.6750   60.3828   62.0235 C   0  0  0  0  0  0  0  0  0  0  0  0
  -49.6465   59.7343   60.6546 C   0  0  0  0  0  0  0  0  0  0  0  0
  -49.7410   58.2347   60.7198 C   0  0  0  0  0  0  0  0  0  0  0  0
  -49.3860   57.5253   59.4381 C   0  0  0  0  0  0  0  0  0  0  0  0
  -48.5076   56.3151   59.6673 C   0  0  0  0  0  0  0  0  0  0  0  0
  -47.2330   56.2975   58.8705 C   0  0  0  0  0  0  0  0  0  0  0  0
  -47.2911   57.1437   57.6622 C   0  0  0  0  0  0  0  0  0  0  0  0
  -47.1647   56.3877   56.4178 C   0  0  0  0  0  0  0  0  0  0  0  0
  -42.6763   60.1752   65.8649 O   0  0  0  0  0  0  0  0  0  0  0  0
  -41.3976   60.5978   66.3888 C   0  0  0  0  0  0  0  0  0  0  0  0
  -40.4763   60.7920   65.2065 C   0  0  0  0  0  0  0  0  0  0  0  0
  -40.6733   62.0954   64.6585 O   0  0  0  0  0  0  0  0  0  0  0  0
  -40.4249   62.7636   65.3163 H   0  0  0  0  0  0  0  0  0  0  0  0
  -39.0070   60.6191   65.5064 C   0  0  0  0  0  0  0  0  0  0  0  0
  -38.3986   61.9238   65.5874 O   0  0  0  0  0  0  0  0  0  0  0  0
  -36.8439   62.0860   65.2946 P   0  0  0  0  0  0  0  0  0  0  0  0
  -36.7100   62.4982   63.8827 O   0  0  0  0  0  0  0  0  0  0  0  0
  -36.2983   62.9581   66.3533 O   0  0  0  0  0  0  0  0  0  0  0  0
  -36.6972   63.8395   66.2837 H   0  0  0  0  0  0  0  0  0  0  0  0
  -36.1581   60.6648   65.4580 O   0  0  0  0  0  0  0  0  0  0  0  0
  -35.2921   60.1619   64.4135 C   0  0  0  0  0  0  0  0  0  0  0  0
  -36.1686   59.3111   63.5228 C   0  0  0  0  0  0  0  0  0  0  0  0
  -35.5846   57.9844   63.0795 N   0  0  0  0  0  0  0  0  0  0  0  0
  -35.6714   56.9658   64.1703 C   0  0  0  0  0  0  0  0  0  0  0  0
  -34.1473   58.1686   62.7113 C   0  0  0  0  0  0  0  0  0  0  0  0
  -36.3380   57.4773   61.8901 C   0  0  0  0  0  0  0  0  0  0  0  0
 34 33  1  0  0  0
 34 35  1  0  0  0
 34 36  1  0  0  0
 34 37  1  0  0  0
 22 23  1  0  0  0
 22 25  1  0  0  0
 22 21  1  0  0  0
 27 26  1  0  0  0
 27 28  2  0  0  0
 27 31  1  0  0  0
 27 29  1  0  0  0
 25 26  1  0  0  0
 32 33  1  0  0  0
 32 31  1  0  0  0
 20 21  1  0  0  0
 20  2  1  0  0  0
  1  2  2  0  0  0
  2  3  1  0  0  0
  3  4  1  0  0  0
  4  5  1  0  0  0
  5  6  1  0  0  0
  6  7  1  0  0  0
  7  8  1  0  0  0
  8  9  1  0  0  0
  9 10  1  0  0  0
 10 11  2  0  0  0
 11 12  1  0  0  0
 12 13  1  0  0  0
 13 14  1  0  0  0
 14 15  1  0  0  0
 15 16  1  0  0  0
 16 17  1  0  0  0
 17 18  1  0  0  0
 18 19  1  0  0  0
 23 24  1  0  0  0
 29 30  1  0  0  0
M  CHG 1  28  -1
M  END
> <minimizedAffinity>
-7.96594

$$$$



 37 36  0  0  0  0  0  0  0  0999 V2000
  -40.8123   61.7352   65.3081 O   0  0  0  0  0  0  0  0  0  0  0  0
  -41.3103   60.7590   64.8371 C   0  0  0  0  0  0  0  0  0  0  0  0
  -41.6338   59.5193   65.6051 C   0  0  0  0  0  0  0  0  0  0  0  0
  -43.1011   59.4210   65.9774 C   0  0  0  0  0  0  0  0  0  0  0  0
  -43.7713   58.1879   65.4110 C   0  0  0  0  0  0  0  0  0  0  0  0
  -45.1065   58.4470   64.7537 C   0  0  0  0  0  0  0  0  0  0  0  0
  -46.2360   57.6262   65.3219 C   0  0  0  0  0  0  0  0  0  0  0  0
  -47.5592   57.9501   64.6819 C   0  0  0  0  0  0  0  0  0  0  0  0
  -48.3199   59.0792   65.3117 C   0  0  0  0  0  0  0  0  0  0  0  0
  -48.3049   60.3110   64.5096 C   0  0  0  0  0  0  0  0  0  0  0  0
  -49.3141   60.8896   63.8970 C   0  0  0  0  0  0  0  0  0  0  0  0
  -50.7358   60.4621   63.8746 C   0  0  0  0  0  0  0  0  0  0  0  0
  -51.1973   59.7953   62.5949 C   0  0  0  0  0  0  0  0  0  0  0  0
  -50.6212   58.4174   62.4170 C   0  0  0  0  0  0  0  0  0  0  0  0
  -49.8827   58.2066   61.1200 C   0  0  0  0  0  0  0  0  0  0  0  0
  -49.0971   56.9138   61.1016 C   0  0  0  0  0  0  0  0  0  0  0  0
  -48.9611   56.2746   59.7478 C   0  0  0  0  0  0  0  0  0  0  0  0
  -48.8115   57.2550   58.6543 C   0  0  0  0  0  0  0  0  0  0  0  0
  -47.8999   56.8141   57.6004 C   0  0  0  0  0  0  0  0  0  0  0  0
  -41.6394   60.6413   63.5507 O   0  0  0  0  0  0  0  0  0  0  0  0
  -41.0537   61.5816   62.6230 C   0  0  0  0  0  0  0  0  0  0  0  0
  -40.5485   60.7839   61.4428 C   0  0  0  0  0  0  0  0  0  0  0  0
  -40.9241   61.4376   60.2305 O   0  0  0  0  0  0  0  0  0  0  0  0
  -40.4928   62.3051   60.1839 H   0  0  0  0  0  0  0  0  0  0  0  0
  -39.0566   60.5557   61.4176 C   0  0  0  0  0  0  0  0  0  0  0  0
  -38.7569   59.3918   62.2141 O   0  0  0  0  0  0  0  0  0  0  0  0
  -37.5500   58.4434   61.7976 P   0  0  0  0  0  0  0  0  0  0  0  0
  -37.7987   57.1276   62.4206 O   0  0  0  0  0  0  0  0  0  0  0  0
  -37.4238   58.5319   60.3296 O   0  0  0  0  0  0  0  0  0  0  0  0
  -38.2250   58.1764   59.9141 H   0  0  0  0  0  0  0  0  0  0  0  0
  -36.2165   59.0365   62.4197 O   0  0  0  0  0  0  0  0  0  0  0  0
  -35.9217   58.8235   63.8202 C   0  0  0  0  0  0  0  0  0  0  0  0
  -35.4409   60.1556   64.3493 C   0  0  0  0  0  0  0  0  0  0  0  0
  -36.4713   60.9994   65.0733 N   0  0  0  0  0  0  0  0  0  0  0  0
  -35.8796   61.6554   66.2793 C   0  0  0  0  0  0  0  0  0  0  0  0
  -37.6092   60.1336   65.5103 C   0  0  0  0  0  0  0  0  0  0  0  0
  -36.9845   62.0625   64.1535 C   0  0  0  0  0  0  0  0  0  0  0  0
 34 33  1  0  0  0
 34 35  1  0  0  0
 34 36  1  0  0  0
 34 37  1  0  0  0
 22 23  1  0  0  0
 22 25  1  0  0  0
 22 21  1  0  0  0
 27 26  1  0  0  0
 27 28  2  0  0  0
 27 31  1  0  0  0
 27 29  1  0  0  0
 25 26  1  0  0  0
 32 33  1  0  0  0
 32 31  1  0  0  0
 20 21  1  0  0  0
 20  2  1  0  0  0
  1  2  2  0  0  0
  2  3  1  0  0  0
  3  4  1  0  0  0
  4  5  1  0  0  0
  5  6  1  0  0  0
  6  7  1  0  0  0
  7  8  1  0  0  0
  8  9  1  0  0  0
  9 10  1  0  0  0
 10 11  2  0  0  0
 11 12  1  0  0  0
 12 13  1  0  0  0
 13 14  1  0  0  0
 14 15  1  0  0  0
 15 16  1  0  0  0
 16 17  1  0  0  0
 17 18  1  0  0  0
 18 19  1  0  0  0
 23 24  1  0  0  0
 29 30  1  0  0  0
M  CHG 1  28  -1
M  END
> <minimizedAffinity>
-7.93219

$$$$



 37 36  0  0  0  0  0  0  0  0999 V2000
  -41.1173   62.0970   66.0306 O   0  0  0  0  0  0  0  0  0  0  0  0
  -40.2250   61.3315   65.8285 C   0  0  0  0  0  0  0  0  0  0  0  0
  -40.4078   59.8832   65.5120 C   0  0  0  0  0  0  0  0  0  0  0  0
  -41.5890   59.2648   66.2357 C   0  0  0  0  0  0  0  0  0  0  0  0
  -42.6371   58.7165   65.2916 C   0  0  0  0  0  0  0  0  0  0  0  0
  -44.0377   59.2194   65.5508 C   0  0  0  0  0  0  0  0  0  0  0  0
  -45.1160   58.2182   65.2233 C   0  0  0  0  0  0  0  0  0  0  0  0
  -46.4060   58.5080   65.9426 C   0  0  0  0  0  0  0  0  0  0  0  0
  -47.5322   58.9893   65.0764 C   0  0  0  0  0  0  0  0  0  0  0  0
  -48.5816   57.9806   64.8709 C   0  0  0  0  0  0  0  0  0  0  0  0
  -49.8037   58.1648   64.4224 C   0  0  0  0  0  0  0  0  0  0  0  0
  -50.4346   59.4357   63.9853 C   0  0  0  0  0  0  0  0  0  0  0  0
  -51.0942   59.4024   62.6217 C   0  0  0  0  0  0  0  0  0  0  0  0
  -50.2907   58.6377   61.6059 C   0  0  0  0  0  0  0  0  0  0  0  0
  -51.0087   57.4649   60.9888 C   0  0  0  0  0  0  0  0  0  0  0  0
  -50.1365   56.6902   60.0257 C   0  0  0  0  0  0  0  0  0  0  0  0
  -48.6684   56.7044   60.3491 C   0  0  0  0  0  0  0  0  0  0  0  0
  -47.8086   56.6259   59.1517 C   0  0  0  0  0  0  0  0  0  0  0  0
  -48.5473   56.7561   57.8973 C   0  0  0  0  0  0  0  0  0  0  0  0
  -38.9359   61.6683   65.8666 O   0  0  0  0  0  0  0  0  0  0  0  0
  -38.0244   60.9161   65.0351 C   0  0  0  0  0  0  0  0  0  0  0  0
  -36.6836   61.6101   65.1065 C   0  0  0  0  0  0  0  0  0  0  0  0
  -36.8491   62.9969   64.8106 O   0  0  0  0  0  0  0  0  0  0  0  0
  -37.4101   63.4072   65.4872 H   0  0  0  0  0  0  0  0  0  0  0  0
  -35.9710   61.4881   66.4315 C   0  0  0  0  0  0  0  0  0  0  0  0
  -34.7188   62.1978   66.3461 O   0  0  0  0  0  0  0  0  0  0  0  0
  -34.4661   63.4617   67.2779 P   0  0  0  0  0  0  0  0  0  0  0  0
  -35.7878   63.9262   67.7452 O   0  0  0  0  0  0  0  0  0  0  0  0
  -33.4507   63.0631   68.2726 O   0  0  0  0  0  0  0  0  0  0  0  0
  -33.8083   62.3585   68.8351 H   0  0  0  0  0  0  0  0  0  0  0  0
  -33.8275   64.6114   66.3906 O   0  0  0  0  0  0  0  0  0  0  0  0
  -32.7215   64.3064   65.5089 C   0  0  0  0  0  0  0  0  0  0  0  0
  -32.2447   65.6351   64.9679 C   0  0  0  0  0  0  0  0  0  0  0  0
  -31.8960   65.6710   63.4931 N   0  0  0  0  0  0  0  0  0  0  0  0
  -30.8719   66.7217   63.2068 C   0  0  0  0  0  0  0  0  0  0  0  0
  -33.1246   65.9715   62.6958 C   0  0  0  0  0  0  0  0  0  0  0  0
  -31.3485   64.3425   63.0750 C   0  0  0  0  0  0  0  0  0  0  0  0
 34 33  1  0  0  0
 34 35  1  0  0  0
 34 36  1  0  0  0
 34 37  1  0  0  0
 22 23  1  0  0  0
 22 25  1  0  0  0
 22 21  1  0  0  0
 27 26  1  0  0  0
 27 28  2  0  0  0
 27 31  1  0  0  0
 27 29  1  0  0  0
 25 26  1  0  0  0
 32 33  1  0  0  0
 32 31  1  0  0  0
 20 21  1  0  0  0
 20  2  1  0  0  0
  1  2  2  0  0  0
  2  3  1  0  0  0
  3  4  1  0  0  0
  4  5  1  0  0  0
  5  6  1  0  0  0
  6  7  1  0  0  0
  7  8  1  0  0  0
  8  9  1  0  0  0
  9 10  1  0  0  0
 10 11  2  0  0  0
 11 12  1  0  0  0
 12 13  1  0  0  0
 13 14  1  0  0  0
 14 15  1  0  0  0
 15 16  1  0  0  0
 16 17  1  0  0  0
 17 18  1  0  0  0
 18 19  1  0  0  0
 23 24  1  0  0  0
 29 30  1  0  0  0
M  CHG 1  28  -1
M  END
> <minimizedAffinity>
-7.88995

$$$$



 37 36  0  0  0  0  0  0  0  0999 V2000
  -43.1436   59.5076   63.9362 O   0  0  0  0  0  0  0  0  0  0  0  0
  -43.2276   59.5017   65.1261 C   0  0  0  0  0  0  0  0  0  0  0  0
  -44.5136   59.5555   65.8840 C   0  0  0  0  0  0  0  0  0  0  0  0
  -45.4796   58.4549   65.4874 C   0  0  0  0  0  0  0  0  0  0  0  0
  -46.8312   58.5885   66.1550 C   0  0  0  0  0  0  0  0  0  0  0  0
  -48.0006   58.6247   65.1996 C   0  0  0  0  0  0  0  0  0  0  0  0
  -48.8472   59.8663   65.3178 C   0  0  0  0  0  0  0  0  0  0  0  0
  -48.5161   60.8892   64.2645 C   0  0  0  0  0  0  0  0  0  0  0  0
  -49.1002   60.6286   62.9076 C   0  0  0  0  0  0  0  0  0  0  0  0
  -50.5215   60.2550   62.9469 C   0  0  0  0  0  0  0  0  0  0  0  0
  -51.0688   59.1165   62.5824 C   0  0  0  0  0  0  0  0  0  0  0  0
  -50.3916   57.9039   62.0576 C   0  0  0  0  0  0  0  0  0  0  0  0
  -51.0007   57.3056   60.8061 C   0  0  0  0  0  0  0  0  0  0  0  0
  -50.0289   57.2417   59.6599 C   0  0  0  0  0  0  0  0  0  0  0  0
  -48.6905   56.6389   60.0023 C   0  0  0  0  0  0  0  0  0  0  0  0
  -48.0536   55.9311   58.8267 C   0  0  0  0  0  0  0  0  0  0  0  0
  -46.8578   56.6279   58.2400 C   0  0  0  0  0  0  0  0  0  0  0  0
  -46.7657   56.4891   56.7732 C   0  0  0  0  0  0  0  0  0  0  0  0
  -48.0629   56.3071   56.1250 C   0  0  0  0  0  0  0  0  0  0  0  0
  -42.1758   59.4542   65.9437 O   0  0  0  0  0  0  0  0  0  0  0  0
  -41.7664   60.6867   66.5770 C   0  0  0  0  0  0  0  0  0  0  0  0
  -40.8033   61.3710   65.6344 C   0  0  0  0  0  0  0  0  0  0  0  0
  -40.6189   62.7263   66.0434 O   0  0  0  0  0  0  0  0  0  0  0  0
  -40.2081   62.7459   66.9219 H   0  0  0  0  0  0  0  0  0  0  0  0
  -39.4465   60.7189   65.5230 C   0  0  0  0  0  0  0  0  0  0  0  0
  -38.5320   61.6613   64.9275 O   0  0  0  0  0  0  0  0  0  0  0  0
  -36.9864   61.5980   65.2970 P   0  0  0  0  0  0  0  0  0  0  0  0
  -36.7330   62.6677   66.2833 O   0  0  0  0  0  0  0  0  0  0  0  0
  -36.6911   60.1985   65.6619 O   0  0  0  0  0  0  0  0  0  0  0  0
  -37.1873   59.9610   66.4608 H   0  0  0  0  0  0  0  0  0  0  0  0
  -36.1507   61.9282   63.9895 O   0  0  0  0  0  0  0  0  0  0  0  0
  -35.3057   63.1024   63.9559 C   0  0  0  0  0  0  0  0  0  0  0  0
  -33.8862   62.5943   64.0679 C   0  0  0  0  0  0  0  0  0  0  0  0
  -32.7901   63.6046   63.7934 N   0  0  0  0  0  0  0  0  0  0  0  0
  -31.5970   62.9505   63.1741 C   0  0  0  0  0  0  0  0  0  0  0  0
  -32.3702   64.2480   65.0760 C   0  0  0  0  0  0  0  0  0  0  0  0
  -33.2996   64.6552   62.8575 C   0  0  0  0  0  0  0  0  0  0  0  0
 34 33  1  0  0  0
 34 35  1  0  0  0
 34 36  1  0  0  0
 34 37  1  0  0  0
 22 23  1  0  0  0
 22 25  1  0  0  0
 22 21  1  0  0  0
 27 26  1  0  0  0
 27 28  2  0  0  0
 27 31  1  0  0  0
 27 29  1  0  0  0
 25 26  1  0  0  0
 32 33  1  0  0  0
 32 31  1  0  0  0
 20 21  1  0  0  0
 20  2  1  0  0  0
  1  2  2  0  0  0
  2  3  1  0  0  0
  3  4  1  0  0  0
  4  5  1  0  0  0
  5  6  1  0  0  0
  6  7  1  0  0  0
  7  8  1  0  0  0
  8  9  1  0  0  0
  9 10  1  0  0  0
 10 11  2  0  0  0
 11 12  1  0  0  0
 12 13  1  0  0  0
 13 14  1  0  0  0
 14 15  1  0  0  0
 15 16  1  0  0  0
 16 17  1  0  0  0
 17 18  1  0  0  0
 18 19  1  0  0  0
 23 24  1  0  0  0
 29 30  1  0  0  0
M  CHG 1  28  -1
M  END
> <minimizedAffinity>
-7.83498

$$$$



 37 36  0  0  0  0  0  0  0  0999 V2000
  -42.3735   60.5639   67.2551 O   0  0  0  0  0  0  0  0  0  0  0  0
  -42.1325   59.8273   66.3482 C   0  0  0  0  0  0  0  0  0  0  0  0
  -43.1551   59.0156   65.6225 C   0  0  0  0  0  0  0  0  0  0  0  0
  -44.3314   59.8427   65.1391 C   0  0  0  0  0  0  0  0  0  0  0  0
  -45.6541   59.3729   65.7049 C   0  0  0  0  0  0  0  0  0  0  0  0
  -46.1345   58.0494   65.1576 C   0  0  0  0  0  0  0  0  0  0  0  0
  -47.5618   58.0713   64.6730 C   0  0  0  0  0  0  0  0  0  0  0  0
  -48.4522   58.9120   65.5481 C   0  0  0  0  0  0  0  0  0  0  0  0
  -49.9221   58.7947   65.2727 C   0  0  0  0  0  0  0  0  0  0  0  0
  -50.4532   59.8999   64.4618 C   0  0  0  0  0  0  0  0  0  0  0  0
  -50.8979   59.8548   63.2254 C   0  0  0  0  0  0  0  0  0  0  0  0
  -51.0008   58.6718   62.3341 C   0  0  0  0  0  0  0  0  0  0  0  0
  -49.7093   58.2398   61.6702 C   0  0  0  0  0  0  0  0  0  0  0  0
  -49.6719   58.5680   60.2029 C   0  0  0  0  0  0  0  0  0  0  0  0
  -49.7282   57.3710   59.2886 C   0  0  0  0  0  0  0  0  0  0  0  0
  -48.8259   56.2464   59.7464 C   0  0  0  0  0  0  0  0  0  0  0  0
  -47.7944   55.8133   58.7423 C   0  0  0  0  0  0  0  0  0  0  0  0
  -47.9867   56.4226   57.4115 C   0  0  0  0  0  0  0  0  0  0  0  0
  -46.8570   56.2122   56.5083 C   0  0  0  0  0  0  0  0  0  0  0  0
  -40.9075   59.6232   65.8639 O   0  0  0  0  0  0  0  0  0  0  0  0
  -40.6555   60.0188   64.4971 C   0  0  0  0  0  0  0  0  0  0  0  0
  -39.9793   61.3697   64.5440 C   0  0  0  0  0  0  0  0  0  0  0  0
  -39.8943   61.8127   65.8985 O   0  0  0  0  0  0  0  0  0  0  0  0
  -39.3327   61.2038   66.4032 H   0  0  0  0  0  0  0  0  0  0  0  0
  -38.5959   61.4129   63.9417 C   0  0  0  0  0  0  0  0  0  0  0  0
  -37.9724   60.1268   64.1316 O   0  0  0  0  0  0  0  0  0  0  0  0
  -36.7569   59.9844   65.1474 P   0  0  0  0  0  0  0  0  0  0  0  0
  -37.1897   60.5820   66.4267 O   0  0  0  0  0  0  0  0  0  0  0  0
  -36.3400   58.5686   65.1193 O   0  0  0  0  0  0  0  0  0  0  0  0
  -37.0608   58.0126   65.4542 H   0  0  0  0  0  0  0  0  0  0  0  0
  -35.5435   60.8418   64.5910 O   0  0  0  0  0  0  0  0  0  0  0  0
  -34.2041   60.5883   65.0764 C   0  0  0  0  0  0  0  0  0  0  0  0
  -33.3445   60.4106   63.8455 C   0  0  0  0  0  0  0  0  0  0  0  0
  -32.8013   59.0162   63.6040 N   0  0  0  0  0  0  0  0  0  0  0  0
  -31.4137   59.0667   63.0501 C   0  0  0  0  0  0  0  0  0  0  0  0
  -33.6792   58.2993   62.6290 C   0  0  0  0  0  0  0  0  0  0  0  0
  -32.7744   58.2584   64.8942 C   0  0  0  0  0  0  0  0  0  0  0  0
 34 33  1  0  0  0
 34 35  1  0  0  0
 34 36  1  0  0  0
 34 37  1  0  0  0
 22 23  1  0  0  0
 22 25  1  0  0  0
 22 21  1  0  0  0
 27 26  1  0  0  0
 27 28  2  0  0  0
 27 31  1  0  0  0
 27 29  1  0  0  0
 25 26  1  0  0  0
 32 33  1  0  0  0
 32 31  1  0  0  0
 20 21  1  0  0  0
 20  2  1  0  0  0
  1  2  2  0  0  0
  2  3  1  0  0  0
  3  4  1  0  0  0
  4  5  1  0  0  0
  5  6  1  0  0  0
  6  7  1  0  0  0
  7  8  1  0  0  0
  8  9  1  0  0  0
  9 10  1  0  0  0
 10 11  2  0  0  0
 11 12  1  0  0  0
 12 13  1  0  0  0
 13 14  1  0  0  0
 14 15  1  0  0  0
 15 16  1  0  0  0
 16 17  1  0  0  0
 17 18  1  0  0  0
 18 19  1  0  0  0
 23 24  1  0  0  0
 29 30  1  0  0  0
M  CHG 1  28  -1
M  END
> <minimizedAffinity>
-7.73749

$$$$
