


 21 20  0  0  0  0  0  0  0  0999 V2000
  -48.5150   59.6166   66.4081 C   0  0  0  0  0  0  0  0  0  0  0  0
  -49.5774   58.6354   65.9786 C   0  0  0  0  0  0  0  0  0  0  0  0
  -50.4863   58.9763   64.8756 C   0  0  0  0  0  0  0  0  0  0  0  0
  -50.1532   58.5661   63.4585 C   0  0  0  0  0  0  0  0  0  0  0  0
  -49.5740   59.7514   62.6871 C   0  0  0  0  0  0  0  0  0  0  0  0
  -49.7537   59.6311   61.1761 C   0  0  0  0  0  0  0  0  0  0  0  0
  -50.1612   58.2128   60.7681 C   0  0  0  0  0  0  0  0  0  0  0  0
  -49.6629   57.7704   59.3870 C   0  0  0  0  0  0  0  0  0  0  0  0
  -48.1328   57.6717   59.3277 C   0  0  0  0  0  0  0  0  0  0  0  0
  -47.6397   56.8628   58.1252 C   0  0  0  0  0  0  0  0  0  0  0  0
  -47.4567   57.7062   56.8576 C   0  0  0  0  0  0  0  0  0  0  0  0
  -47.1845   58.8815   66.4051 C   0  0  0  0  0  0  0  0  0  0  0  0
  -46.6369   58.7112   64.9992 C   0  0  0  0  0  0  0  0  0  0  0  0
  -45.1316   58.4628   65.0216 C   0  0  0  0  0  0  0  0  0  0  0  0
  -44.6188   58.4772   66.4549 C   0  0  0  0  0  0  0  0  0  0  0  0
  -43.0989   58.5071   66.4887 C   0  0  0  0  0  0  0  0  0  0  0  0
  -42.5892   59.7598   67.1941 C   0  0  0  0  0  0  0  0  0  0  0  0
  -41.4379   60.3558   66.4077 C   0  0  0  0  0  0  0  0  0  0  0  0
  -40.6120   59.6035   65.8301 O   0  0  0  0  0  0  0  0  0  0  0  0
  -41.2978   61.6038   66.3311 O   0  0  0  0  0  0  0  0  0  0  0  0
  -41.9090   62.1709   66.7586 H   0  0  0  0  0  0  0  0  0  0  0  0
 18 19  2  0  0  0
 18 17  1  0  0  0
 18 20  1  0  0  0
 17 16  1  0  0  0
 16 15  1  0  0  0
 15 14  1  0  0  0
 14 13  1  0  0  0
 13 12  1  0  0  0
 12  1  1  0  0  0
  1  2  1  0  0  0
  2  3  1  0  0  0
  3  4  1  0  0  0
  4  5  1  0  0  0
  5  6  1  0  0  0
  6  7  1  0  0  0
  7  8  1  0  0  0
  8  9  1  0  0  0
  9 10  1  0  0  0
 10 11  1  0  0  0
 20 21  1  0  0  0
M  END
> <minimizedAffinity>
-7.25012

> <CNNscore>
0.9213830829

> <CNNaffinity>
6.7738494873

> <CNN_VS>
6.2413101196

> <CNNaffinity_variance>
0.1139574051

$$$$



 21 20  0  0  0  0  0  0  0  0999 V2000
  -47.1290   58.6830   65.6114 C   0  0  0  0  0  0  0  0  0  0  0  0
  -47.7464   59.5879   64.5742 C   0  0  0  0  0  0  0  0  0  0  0  0
  -48.7606   59.0593   63.6517 C   0  0  0  0  0  0  0  0  0  0  0  0
  -50.1807   59.5773   63.7017 C   0  0  0  0  0  0  0  0  0  0  0  0
  -51.0575   58.8134   62.7102 C   0  0  0  0  0  0  0  0  0  0  0  0
  -50.2595   57.9104   61.7734 C   0  0  0  0  0  0  0  0  0  0  0  0
  -50.1275   58.5235   60.3767 C   0  0  0  0  0  0  0  0  0  0  0  0
  -49.5777   57.5746   59.3048 C   0  0  0  0  0  0  0  0  0  0  0  0
  -48.0574   57.7036   59.1422 C   0  0  0  0  0  0  0  0  0  0  0  0
  -47.6298   57.8389   57.6785 C   0  0  0  0  0  0  0  0  0  0  0  0
  -47.1764   56.5148   57.0516 C   0  0  0  0  0  0  0  0  0  0  0  0
  -45.6711   58.4794   65.2321 C   0  0  0  0  0  0  0  0  0  0  0  0
  -44.8297   58.0654   66.4262 C   0  0  0  0  0  0  0  0  0  0  0  0
  -43.4458   58.7055   66.3724 C   0  0  0  0  0  0  0  0  0  0  0  0
  -42.4437   57.7380   65.7581 C   0  0  0  0  0  0  0  0  0  0  0  0
  -41.1361   58.4426   65.4329 C   0  0  0  0  0  0  0  0  0  0  0  0
  -40.2191   57.5460   64.6073 C   0  0  0  0  0  0  0  0  0  0  0  0
  -38.7884   58.0350   64.7223 C   0  0  0  0  0  0  0  0  0  0  0  0
  -38.3753   58.5291   65.8025 O   0  0  0  0  0  0  0  0  0  0  0  0
  -38.0072   57.9546   63.7393 O   0  0  0  0  0  0  0  0  0  0  0  0
  -38.3074   57.5877   62.9311 H   0  0  0  0  0  0  0  0  0  0  0  0
 18 19  2  0  0  0
 18 17  1  0  0  0
 18 20  1  0  0  0
 17 16  1  0  0  0
 16 15  1  0  0  0
 15 14  1  0  0  0
 14 13  1  0  0  0
 13 12  1  0  0  0
 12  1  1  0  0  0
  1  2  1  0  0  0
  2  3  1  0  0  0
  3  4  1  0  0  0
  4  5  1  0  0  0
  5  6  1  0  0  0
  6  7  1  0  0  0
  7  8  1  0  0  0
  8  9  1  0  0  0
  9 10  1  0  0  0
 10 11  1  0  0  0
 20 21  1  0  0  0
M  END
> <minimizedAffinity>
-6.66035

> <CNNscore>
0.8620367050

> <CNNaffinity>
6.7470750809

> <CNN_VS>
5.8162264824

> <CNNaffinity_variance>
0.3805255294

$$$$



 21 20  0  0  0  0  0  0  0  0999 V2000
  -45.3114   57.7421   65.3519 C   0  0  0  0  0  0  0  0  0  0  0  0
  -46.5048   58.6620   65.2781 C   0  0  0  0  0  0  0  0  0  0  0  0
  -47.5554   58.5824   66.3023 C   0  0  0  0  0  0  0  0  0  0  0  0
  -48.5577   59.7046   66.4551 C   0  0  0  0  0  0  0  0  0  0  0  0
  -49.2407   59.9894   65.1180 C   0  0  0  0  0  0  0  0  0  0  0  0
  -50.6668   59.4503   65.0443 C   0  0  0  0  0  0  0  0  0  0  0  0
  -51.2404   59.5655   63.6294 C   0  0  0  0  0  0  0  0  0  0  0  0
  -50.6497   58.5824   62.6116 C   0  0  0  0  0  0  0  0  0  0  0  0
  -49.8467   59.2961   61.5160 C   0  0  0  0  0  0  0  0  0  0  0  0
  -49.7237   58.4634   60.2372 C   0  0  0  0  0  0  0  0  0  0  0  0
  -49.8545   56.9546   60.4779 C   0  0  0  0  0  0  0  0  0  0  0  0
  -44.3241   58.3508   66.3345 C   0  0  0  0  0  0  0  0  0  0  0  0
  -43.0722   57.5031   66.4749 C   0  0  0  0  0  0  0  0  0  0  0  0
  -42.6451   56.9259   65.1287 C   0  0  0  0  0  0  0  0  0  0  0  0
  -41.7816   57.9297   64.3776 C   0  0  0  0  0  0  0  0  0  0  0  0
  -42.4717   58.3970   63.1058 C   0  0  0  0  0  0  0  0  0  0  0  0
  -42.9063   59.8546   63.2198 C   0  0  0  0  0  0  0  0  0  0  0  0
  -41.7387   60.7629   62.8869 C   0  0  0  0  0  0  0  0  0  0  0  0
  -41.4990   61.7699   63.6011 O   0  0  0  0  0  0  0  0  0  0  0  0
  -41.0057   60.5195   61.8936 O   0  0  0  0  0  0  0  0  0  0  0  0
  -41.1778   59.7712   61.3566 H   0  0  0  0  0  0  0  0  0  0  0  0
 18 19  2  0  0  0
 18 17  1  0  0  0
 18 20  1  0  0  0
 17 16  1  0  0  0
 16 15  1  0  0  0
 15 14  1  0  0  0
 14 13  1  0  0  0
 13 12  1  0  0  0
 12  1  1  0  0  0
  1  2  1  0  0  0
  2  3  1  0  0  0
  3  4  1  0  0  0
  4  5  1  0  0  0
  5  6  1  0  0  0
  6  7  1  0  0  0
  7  8  1  0  0  0
  8  9  1  0  0  0
  9 10  1  0  0  0
 10 11  1  0  0  0
 20 21  1  0  0  0
M  END
> <minimizedAffinity>
-6.44365

> <CNNscore>
0.8617489338

> <CNNaffinity>
6.7068848610

> <CNN_VS>
5.7796506882

> <CNNaffinity_variance>
0.2520997226

$$$$



 21 20  0  0  0  0  0  0  0  0999 V2000
  -48.5992   59.6241   66.3489 C   0  0  0  0  0  0  0  0  0  0  0  0
  -48.5111   59.6660   64.8435 C   0  0  0  0  0  0  0  0  0  0  0  0
  -49.6378   59.1882   64.0303 C   0  0  0  0  0  0  0  0  0  0  0  0
  -49.3963   58.6323   62.6446 C   0  0  0  0  0  0  0  0  0  0  0  0
  -50.7253   58.4246   61.9192 C   0  0  0  0  0  0  0  0  0  0  0  0
  -50.5749   57.6992   60.5847 C   0  0  0  0  0  0  0  0  0  0  0  0
  -49.5451   56.5695   60.6702 C   0  0  0  0  0  0  0  0  0  0  0  0
  -48.4181   56.6438   59.6329 C   0  0  0  0  0  0  0  0  0  0  0  0
  -48.4686   57.9411   58.8150 C   0  0  0  0  0  0  0  0  0  0  0  0
  -47.4249   57.9740   57.6956 C   0  0  0  0  0  0  0  0  0  0  0  0
  -47.1761   56.6033   57.0544 C   0  0  0  0  0  0  0  0  0  0  0  0
  -47.3831   58.8673   66.8580 C   0  0  0  0  0  0  0  0  0  0  0  0
  -46.3421   58.6744   65.7698 C   0  0  0  0  0  0  0  0  0  0  0  0
  -45.0302   58.1539   66.3496 C   0  0  0  0  0  0  0  0  0  0  0  0
  -44.1609   57.5738   65.2427 C   0  0  0  0  0  0  0  0  0  0  0  0
  -44.2407   58.4252   63.9854 C   0  0  0  0  0  0  0  0  0  0  0  0
  -43.0218   58.2065   63.0950 C   0  0  0  0  0  0  0  0  0  0  0  0
  -42.1851   59.4705   63.0555 C   0  0  0  0  0  0  0  0  0  0  0  0
  -42.5355   60.4368   62.3308 O   0  0  0  0  0  0  0  0  0  0  0  0
  -41.1344   59.5601   63.7418 O   0  0  0  0  0  0  0  0  0  0  0  0
  -40.8666   58.8445   64.2842 H   0  0  0  0  0  0  0  0  0  0  0  0
 18 19  2  0  0  0
 18 17  1  0  0  0
 18 20  1  0  0  0
 17 16  1  0  0  0
 16 15  1  0  0  0
 15 14  1  0  0  0
 14 13  1  0  0  0
 13 12  1  0  0  0
 12  1  1  0  0  0
  1  2  1  0  0  0
  2  3  1  0  0  0
  3  4  1  0  0  0
  4  5  1  0  0  0
  5  6  1  0  0  0
  6  7  1  0  0  0
  7  8  1  0  0  0
  8  9  1  0  0  0
  9 10  1  0  0  0
 10 11  1  0  0  0
 20 21  1  0  0  0
M  END
> <minimizedAffinity>
-6.83215

> <CNNscore>
0.8482987881

> <CNNaffinity>
6.7380762100

> <CNN_VS>
5.7159018517

> <CNNaffinity_variance>
0.1849507838

$$$$



 21 20  0  0  0  0  0  0  0  0999 V2000
  -47.0441   58.2306   65.5942 C   0  0  0  0  0  0  0  0  0  0  0  0
  -47.9087   59.4247   65.2744 C   0  0  0  0  0  0  0  0  0  0  0  0
  -48.7970   59.3935   64.1044 C   0  0  0  0  0  0  0  0  0  0  0  0
  -50.2466   58.9903   64.2582 C   0  0  0  0  0  0  0  0  0  0  0  0
  -50.8797   58.7597   62.8866 C   0  0  0  0  0  0  0  0  0  0  0  0
  -49.9937   57.9499   61.9437 C   0  0  0  0  0  0  0  0  0  0  0  0
  -49.7218   58.7039   60.6392 C   0  0  0  0  0  0  0  0  0  0  0  0
  -49.6126   57.8178   59.3925 C   0  0  0  0  0  0  0  0  0  0  0  0
  -48.2311   57.9155   58.7318 C   0  0  0  0  0  0  0  0  0  0  0  0
  -47.4795   56.5819   58.7354 C   0  0  0  0  0  0  0  0  0  0  0  0
  -47.3180   55.9700   57.3385 C   0  0  0  0  0  0  0  0  0  0  0  0
  -45.6907   58.4567   64.9399 C   0  0  0  0  0  0  0  0  0  0  0  0
  -44.5644   57.8286   65.7413 C   0  0  0  0  0  0  0  0  0  0  0  0
  -43.4457   57.3383   64.8269 C   0  0  0  0  0  0  0  0  0  0  0  0
  -43.4932   58.0776   63.4970 C   0  0  0  0  0  0  0  0  0  0  0  0
  -42.1137   58.1424   62.8607 C   0  0  0  0  0  0  0  0  0  0  0  0
  -42.1764   57.7995   61.3759 C   0  0  0  0  0  0  0  0  0  0  0  0
  -40.7777   57.8078   60.7905 C   0  0  0  0  0  0  0  0  0  0  0  0
  -39.7992   57.4379   61.4887 O   0  0  0  0  0  0  0  0  0  0  0  0
  -40.5852   58.1882   59.6067 O   0  0  0  0  0  0  0  0  0  0  0  0
  -41.3091   58.4652   59.0801 H   0  0  0  0  0  0  0  0  0  0  0  0
 18 19  2  0  0  0
 18 17  1  0  0  0
 18 20  1  0  0  0
 17 16  1  0  0  0
 16 15  1  0  0  0
 15 14  1  0  0  0
 14 13  1  0  0  0
 13 12  1  0  0  0
 12  1  1  0  0  0
  1  2  1  0  0  0
  2  3  1  0  0  0
  3  4  1  0  0  0
  4  5  1  0  0  0
  5  6  1  0  0  0
  6  7  1  0  0  0
  7  8  1  0  0  0
  8  9  1  0  0  0
  9 10  1  0  0  0
 10 11  1  0  0  0
 20 21  1  0  0  0
M  END
> <minimizedAffinity>
-6.83175

> <CNNscore>
0.8479629755

> <CNNaffinity>
6.9354629517

> <CNN_VS>
5.8810157776

> <CNNaffinity_variance>
0.5192341805

$$$$



 21 20  0  0  0  0  0  0  0  0999 V2000
  -47.4415   57.0379   66.1665 C   0  0  0  0  0  0  0  0  0  0  0  0
  -48.4991   58.0070   65.6994 C   0  0  0  0  0  0  0  0  0  0  0  0
  -48.2539   58.8448   64.5175 C   0  0  0  0  0  0  0  0  0  0  0  0
  -49.3642   59.6957   63.9425 C   0  0  0  0  0  0  0  0  0  0  0  0
  -50.6422   58.8703   63.7979 C   0  0  0  0  0  0  0  0  0  0  0  0
  -50.9953   58.5579   62.3462 C   0  0  0  0  0  0  0  0  0  0  0  0
  -50.0159   59.2197   61.3730 C   0  0  0  0  0  0  0  0  0  0  0  0
  -49.8190   58.4731   60.0482 C   0  0  0  0  0  0  0  0  0  0  0  0
  -49.1032   57.1297   60.2414 C   0  0  0  0  0  0  0  0  0  0  0  0
  -47.8417   57.0043   59.3833 C   0  0  0  0  0  0  0  0  0  0  0  0
  -47.8470   57.9223   58.1549 C   0  0  0  0  0  0  0  0  0  0  0  0
  -46.6559   57.7173   67.2766 C   0  0  0  0  0  0  0  0  0  0  0  0
  -45.4732   58.4994   66.7338 C   0  0  0  0  0  0  0  0  0  0  0  0
  -44.7757   57.7345   65.6130 C   0  0  0  0  0  0  0  0  0  0  0  0
  -44.5822   58.6376   64.4028 C   0  0  0  0  0  0  0  0  0  0  0  0
  -43.5169   58.0798   63.4723 C   0  0  0  0  0  0  0  0  0  0  0  0
  -42.5238   59.1624   63.0619 C   0  0  0  0  0  0  0  0  0  0  0  0
  -41.2219   58.9732   63.8159 C   0  0  0  0  0  0  0  0  0  0  0  0
  -40.2120   58.5117   63.2254 O   0  0  0  0  0  0  0  0  0  0  0  0
  -41.1437   59.2713   65.0358 O   0  0  0  0  0  0  0  0  0  0  0  0
  -41.8917   59.6157   65.4828 H   0  0  0  0  0  0  0  0  0  0  0  0
 18 19  2  0  0  0
 18 17  1  0  0  0
 18 20  1  0  0  0
 17 16  1  0  0  0
 16 15  1  0  0  0
 15 14  1  0  0  0
 14 13  1  0  0  0
 13 12  1  0  0  0
 12  1  1  0  0  0
  1  2  1  0  0  0
  2  3  1  0  0  0
  3  4  1  0  0  0
  4  5  1  0  0  0
  5  6  1  0  0  0
  6  7  1  0  0  0
  7  8  1  0  0  0
  8  9  1  0  0  0
  9 10  1  0  0  0
 10 11  1  0  0  0
 20 21  1  0  0  0
M  END
> <minimizedAffinity>
-6.57260

> <CNNscore>
0.8013114929

> <CNNaffinity>
6.7663826942

> <CNN_VS>
5.4219803810

> <CNNaffinity_variance>
0.2659216523

$$$$



 21 20  0  0  0  0  0  0  0  0999 V2000
  -49.0615   58.9762   66.1081 C   0  0  0  0  0  0  0  0  0  0  0  0
  -50.5444   59.0706   65.8474 C   0  0  0  0  0  0  0  0  0  0  0  0
  -51.0476   59.9641   64.7951 C   0  0  0  0  0  0  0  0  0  0  0  0
  -51.2856   59.4376   63.3974 C   0  0  0  0  0  0  0  0  0  0  0  0
  -50.0437   59.6520   62.5329 C   0  0  0  0  0  0  0  0  0  0  0  0
  -49.4842   58.3561   61.9521 C   0  0  0  0  0  0  0  0  0  0  0  0
  -50.3991   57.7842   60.8658 C   0  0  0  0  0  0  0  0  0  0  0  0
  -49.6695   57.1763   59.6618 C   0  0  0  0  0  0  0  0  0  0  0  0
  -48.4742   58.0299   59.2178 C   0  0  0  0  0  0  0  0  0  0  0  0
  -47.4604   57.2390   58.3869 C   0  0  0  0  0  0  0  0  0  0  0  0
  -47.1402   57.8899   57.0358 C   0  0  0  0  0  0  0  0  0  0  0  0
  -48.6201   57.5692   65.7387 C   0  0  0  0  0  0  0  0  0  0  0  0
  -47.1256   57.3788   65.9269 C   0  0  0  0  0  0  0  0  0  0  0  0
  -46.4591   58.6738   66.3815 C   0  0  0  0  0  0  0  0  0  0  0  0
  -44.9609   58.4621   66.5489 C   0  0  0  0  0  0  0  0  0  0  0  0
  -44.3869   57.6835   65.3757 C   0  0  0  0  0  0  0  0  0  0  0  0
  -43.0284   57.0845   65.7253 C   0  0  0  0  0  0  0  0  0  0  0  0
  -42.4511   56.3849   64.5102 C   0  0  0  0  0  0  0  0  0  0  0  0
  -42.4131   56.9757   63.4006 O   0  0  0  0  0  0  0  0  0  0  0  0
  -42.0111   55.2097   64.6015 O   0  0  0  0  0  0  0  0  0  0  0  0
  -42.0359   54.7628   65.4247 H   0  0  0  0  0  0  0  0  0  0  0  0
 18 19  2  0  0  0
 18 17  1  0  0  0
 18 20  1  0  0  0
 17 16  1  0  0  0
 16 15  1  0  0  0
 15 14  1  0  0  0
 14 13  1  0  0  0
 13 12  1  0  0  0
 12  1  1  0  0  0
  1  2  1  0  0  0
  2  3  1  0  0  0
  3  4  1  0  0  0
  4  5  1  0  0  0
  5  6  1  0  0  0
  6  7  1  0  0  0
  7  8  1  0  0  0
  8  9  1  0  0  0
  9 10  1  0  0  0
 10 11  1  0  0  0
 20 21  1  0  0  0
M  END
> <minimizedAffinity>
-7.35490

> <CNNscore>
0.7798953056

> <CNNaffinity>
6.9011182785

> <CNN_VS>
5.3821496964

> <CNNaffinity_variance>
0.3332335949

$$$$



 21 20  0  0  0  0  0  0  0  0999 V2000
  -49.2561   58.5624   66.0016 C   0  0  0  0  0  0  0  0  0  0  0  0
  -50.5896   58.8246   65.3467 C   0  0  0  0  0  0  0  0  0  0  0  0
  -50.6728   59.7273   64.1904 C   0  0  0  0  0  0  0  0  0  0  0  0
  -51.1371   59.2066   62.8485 C   0  0  0  0  0  0  0  0  0  0  0  0
  -50.1173   58.2189   62.2829 C   0  0  0  0  0  0  0  0  0  0  0  0
  -50.6246   57.4681   61.0546 C   0  0  0  0  0  0  0  0  0  0  0  0
  -50.1600   58.1328   59.7560 C   0  0  0  0  0  0  0  0  0  0  0  0
  -48.6435   58.1169   59.5296 C   0  0  0  0  0  0  0  0  0  0  0  0
  -48.1053   56.6964   59.3127 C   0  0  0  0  0  0  0  0  0  0  0  0
  -47.3188   56.5563   58.0068 C   0  0  0  0  0  0  0  0  0  0  0  0
  -47.1367   57.8833   57.2601 C   0  0  0  0  0  0  0  0  0  0  0  0
  -48.2485   59.5218   65.3889 C   0  0  0  0  0  0  0  0  0  0  0  0
  -47.1334   58.7850   64.6686 C   0  0  0  0  0  0  0  0  0  0  0  0
  -46.4137   57.8223   65.6083 C   0  0  0  0  0  0  0  0  0  0  0  0
  -45.5013   58.5937   66.5517 C   0  0  0  0  0  0  0  0  0  0  0  0
  -44.0788   58.6398   66.0165 C   0  0  0  0  0  0  0  0  0  0  0  0
  -43.3266   57.3537   66.3428 C   0  0  0  0  0  0  0  0  0  0  0  0
  -42.7024   56.7928   65.0799 C   0  0  0  0  0  0  0  0  0  0  0  0
  -42.1161   57.5581   64.2723 O   0  0  0  0  0  0  0  0  0  0  0  0
  -42.7700   55.5618   64.8288 O   0  0  0  0  0  0  0  0  0  0  0  0
  -43.2052   54.9852   65.4256 H   0  0  0  0  0  0  0  0  0  0  0  0
 18 19  2  0  0  0
 18 17  1  0  0  0
 18 20  1  0  0  0
 17 16  1  0  0  0
 16 15  1  0  0  0
 15 14  1  0  0  0
 14 13  1  0  0  0
 13 12  1  0  0  0
 12  1  1  0  0  0
  1  2  1  0  0  0
  2  3  1  0  0  0
  3  4  1  0  0  0
  4  5  1  0  0  0
  5  6  1  0  0  0
  6  7  1  0  0  0
  7  8  1  0  0  0
  8  9  1  0  0  0
  9 10  1  0  0  0
 10 11  1  0  0  0
 20 21  1  0  0  0
M  END
> <minimizedAffinity>
-7.43527

> <CNNscore>
0.7636704445

> <CNNaffinity>
6.7969985008

> <CNN_VS>
5.1906666756

> <CNNaffinity_variance>
0.2374872267

$$$$



 21 20  0  0  0  0  0  0  0  0999 V2000
  -47.9501   59.8135   65.4078 C   0  0  0  0  0  0  0  0  0  0  0  0
  -49.1870   59.3509   66.1370 C   0  0  0  0  0  0  0  0  0  0  0  0
  -50.3811   58.9569   65.3768 C   0  0  0  0  0  0  0  0  0  0  0  0
  -51.1607   59.9889   64.5928 C   0  0  0  0  0  0  0  0  0  0  0  0
  -51.4356   59.4812   63.1778 C   0  0  0  0  0  0  0  0  0  0  0  0
  -50.3563   58.5353   62.6581 C   0  0  0  0  0  0  0  0  0  0  0  0
  -49.9018   58.9196   61.2474 C   0  0  0  0  0  0  0  0  0  0  0  0
  -49.1127   57.8340   60.5056 C   0  0  0  0  0  0  0  0  0  0  0  0
  -48.5070   58.3523   59.1945 C   0  0  0  0  0  0  0  0  0  0  0  0
  -47.7752   57.2602   58.4101 C   0  0  0  0  0  0  0  0  0  0  0  0
  -47.1411   57.7661   57.1087 C   0  0  0  0  0  0  0  0  0  0  0  0
  -47.1575   58.5758   65.0196 C   0  0  0  0  0  0  0  0  0  0  0  0
  -45.8150   58.5205   65.7268 C   0  0  0  0  0  0  0  0  0  0  0  0
  -44.7982   57.7235   64.9151 C   0  0  0  0  0  0  0  0  0  0  0  0
  -43.4993   57.5808   65.6961 C   0  0  0  0  0  0  0  0  0  0  0  0
  -42.3112   57.4476   64.7565 C   0  0  0  0  0  0  0  0  0  0  0  0
  -41.9483   55.9831   64.5334 C   0  0  0  0  0  0  0  0  0  0  0  0
  -41.2885   55.8215   63.1777 C   0  0  0  0  0  0  0  0  0  0  0  0
  -40.5541   56.7343   62.7205 O   0  0  0  0  0  0  0  0  0  0  0  0
  -41.4740   54.7779   62.4998 O   0  0  0  0  0  0  0  0  0  0  0  0
  -42.0198   54.0933   62.8335 H   0  0  0  0  0  0  0  0  0  0  0  0
 18 19  2  0  0  0
 18 17  1  0  0  0
 18 20  1  0  0  0
 17 16  1  0  0  0
 16 15  1  0  0  0
 15 14  1  0  0  0
 14 13  1  0  0  0
 13 12  1  0  0  0
 12  1  1  0  0  0
  1  2  1  0  0  0
  2  3  1  0  0  0
  3  4  1  0  0  0
  4  5  1  0  0  0
  5  6  1  0  0  0
  6  7  1  0  0  0
  7  8  1  0  0  0
  8  9  1  0  0  0
  9 10  1  0  0  0
 10 11  1  0  0  0
 20 21  1  0  0  0
M  END
> <minimizedAffinity>
-7.20976

> <CNNscore>
0.7556836605

> <CNNaffinity>
6.8220138550

> <CNN_VS>
5.1552844048

> <CNNaffinity_variance>
0.3736956418

$$$$
