


 21 20  0  0  0  0  0  0  0  0999 V2000
  -47.4950   59.0494   64.8213 C   0  0  0  0  0  0  0  0  0  0  0  0
  -48.6911   58.1803   65.1210 C   0  0  0  0  0  0  0  0  0  0  0  0
  -50.0400   58.7627   65.1125 C   0  0  0  0  0  0  0  0  0  0  0  0
  -50.2979   60.0789   64.4136 C   0  0  0  0  0  0  0  0  0  0  0  0
  -51.1773   59.8608   63.1829 C   0  0  0  0  0  0  0  0  0  0  0  0
  -50.4072   59.3178   61.9822 C   0  0  0  0  0  0  0  0  0  0  0  0
  -50.8086   57.8758   61.6604 C   0  0  0  0  0  0  0  0  0  0  0  0
  -49.8024   57.1026   60.7994 C   0  0  0  0  0  0  0  0  0  0  0  0
  -49.7269   57.6476   59.3670 C   0  0  0  0  0  0  0  0  0  0  0  0
  -48.7211   56.8875   58.4986 C   0  0  0  0  0  0  0  0  0  0  0  0
  -47.9645   55.7922   59.2599 C   0  0  0  0  0  0  0  0  0  0  0  0
  -46.3287   58.5222   65.6416 C   0  0  0  0  0  0  0  0  0  0  0  0
  -45.0986   58.2826   64.7846 C   0  0  0  0  0  0  0  0  0  0  0  0
  -43.9334   59.1570   65.2382 C   0  0  0  0  0  0  0  0  0  0  0  0
  -42.8116   58.2900   65.7927 C   0  0  0  0  0  0  0  0  0  0  0  0
  -41.4701   58.9964   65.6770 C   0  0  0  0  0  0  0  0  0  0  0  0
  -41.5030   60.3556   66.3683 C   0  0  0  0  0  0  0  0  0  0  0  0
  -40.9082   61.4082   65.4532 C   0  0  0  0  0  0  0  0  0  0  0  0
  -41.0160   61.2935   64.2055 O   0  0  0  0  0  0  0  0  0  0  0  0
  -40.3000   62.3993   65.9338 O   0  0  0  0  0  0  0  0  0  0  0  0
  -40.2154   62.4919   66.8624 H   0  0  0  0  0  0  0  0  0  0  0  0
 18 19  2  0  0  0
 18 17  1  0  0  0
 18 20  1  0  0  0
 17 16  1  0  0  0
 16 15  1  0  0  0
 15 14  1  0  0  0
 14 13  1  0  0  0
 13 12  1  0  0  0
 12  1  1  0  0  0
  1  2  1  0  0  0
  2  3  1  0  0  0
  3  4  1  0  0  0
  4  5  1  0  0  0
  5  6  1  0  0  0
  6  7  1  0  0  0
  7  8  1  0  0  0
  8  9  1  0  0  0
  9 10  1  0  0  0
 10 11  1  0  0  0
 20 21  1  0  0  0
M  END
> <minimizedAffinity>
-7.03575

> <CNNscore>
0.9264690876

> <CNNaffinity>
6.9627332687

> <CNN_VS>
6.4507570267

> <CNNaffinity_variance>
0.8319948912

$$$$



 21 20  0  0  0  0  0  0  0  0999 V2000
  -48.0408   58.0849   65.5236 C   0  0  0  0  0  0  0  0  0  0  0  0
  -49.0706   59.1850   65.4529 C   0  0  0  0  0  0  0  0  0  0  0  0
  -50.1864   59.0837   64.5022 C   0  0  0  0  0  0  0  0  0  0  0  0
  -50.3642   60.1266   63.4214 C   0  0  0  0  0  0  0  0  0  0  0  0
  -50.2668   59.4791   62.0406 C   0  0  0  0  0  0  0  0  0  0  0  0
  -50.4629   57.9657   62.0709 C   0  0  0  0  0  0  0  0  0  0  0  0
  -49.4547   57.2486   61.1691 C   0  0  0  0  0  0  0  0  0  0  0  0
  -49.3263   57.8290   59.7555 C   0  0  0  0  0  0  0  0  0  0  0  0
  -48.9214   56.7647   58.7271 C   0  0  0  0  0  0  0  0  0  0  0  0
  -47.6969   57.1743   57.9046 C   0  0  0  0  0  0  0  0  0  0  0  0
  -47.6138   56.4709   56.5445 C   0  0  0  0  0  0  0  0  0  0  0  0
  -47.0741   58.2875   64.3680 C   0  0  0  0  0  0  0  0  0  0  0  0
  -45.6293   58.1255   64.8057 C   0  0  0  0  0  0  0  0  0  0  0  0
  -45.1638   59.3276   65.6218 C   0  0  0  0  0  0  0  0  0  0  0  0
  -43.8302   59.8364   65.0926 C   0  0  0  0  0  0  0  0  0  0  0  0
  -42.6909   59.4428   66.0196 C   0  0  0  0  0  0  0  0  0  0  0  0
  -42.1032   60.6647   66.7180 C   0  0  0  0  0  0  0  0  0  0  0  0
  -40.8038   61.0617   66.0449 C   0  0  0  0  0  0  0  0  0  0  0  0
  -40.0558   60.1812   65.5481 O   0  0  0  0  0  0  0  0  0  0  0  0
  -40.4628   62.2712   65.9825 O   0  0  0  0  0  0  0  0  0  0  0  0
  -41.0147   62.9331   66.3502 H   0  0  0  0  0  0  0  0  0  0  0  0
 18 19  2  0  0  0
 18 17  1  0  0  0
 18 20  1  0  0  0
 17 16  1  0  0  0
 16 15  1  0  0  0
 15 14  1  0  0  0
 14 13  1  0  0  0
 13 12  1  0  0  0
 12  1  1  0  0  0
  1  2  1  0  0  0
  2  3  1  0  0  0
  3  4  1  0  0  0
  4  5  1  0  0  0
  5  6  1  0  0  0
  6  7  1  0  0  0
  7  8  1  0  0  0
  8  9  1  0  0  0
  9 10  1  0  0  0
 10 11  1  0  0  0
 20 21  1  0  0  0
M  END
> <minimizedAffinity>
-6.89811

> <CNNscore>
0.8821436763

> <CNNaffinity>
6.8765921593

> <CNN_VS>
6.0661420822

> <CNNaffinity_variance>
0.7057930231

$$$$



 21 20  0  0  0  0  0  0  0  0999 V2000
  -46.5491   57.9997   65.5900 C   0  0  0  0  0  0  0  0  0  0  0  0
  -47.7228   58.1076   64.6484 C   0  0  0  0  0  0  0  0  0  0  0  0
  -49.0909   57.9576   65.1632 C   0  0  0  0  0  0  0  0  0  0  0  0
  -50.1396   59.0035   64.8572 C   0  0  0  0  0  0  0  0  0  0  0  0
  -49.6042   60.0061   63.8356 C   0  0  0  0  0  0  0  0  0  0  0  0
  -50.4483   60.0799   62.5661 C   0  0  0  0  0  0  0  0  0  0  0  0
  -50.8982   58.6903   62.1069 C   0  0  0  0  0  0  0  0  0  0  0  0
  -49.8616   57.9156   61.2842 C   0  0  0  0  0  0  0  0  0  0  0  0
  -50.3873   57.5455   59.8910 C   0  0  0  0  0  0  0  0  0  0  0  0
  -49.2810   57.0535   58.9542 C   0  0  0  0  0  0  0  0  0  0  0  0
  -48.5087   55.8482   59.5040 C   0  0  0  0  0  0  0  0  0  0  0  0
  -45.2822   58.1027   64.7563 C   0  0  0  0  0  0  0  0  0  0  0  0
  -44.1820   57.2014   65.2877 C   0  0  0  0  0  0  0  0  0  0  0  0
  -42.9166   57.9982   65.5907 C   0  0  0  0  0  0  0  0  0  0  0  0
  -43.1322   59.4694   65.2644 C   0  0  0  0  0  0  0  0  0  0  0  0
  -41.8192   60.2350   65.3097 C   0  0  0  0  0  0  0  0  0  0  0  0
  -41.2780   60.4819   63.9053 C   0  0  0  0  0  0  0  0  0  0  0  0
  -39.9322   59.8009   63.7497 C   0  0  0  0  0  0  0  0  0  0  0  0
  -39.0904   60.2470   62.9287 O   0  0  0  0  0  0  0  0  0  0  0  0
  -39.6501   58.7844   64.4354 O   0  0  0  0  0  0  0  0  0  0  0  0
  -40.2719   58.4460   65.0492 H   0  0  0  0  0  0  0  0  0  0  0  0
 18 19  2  0  0  0
 18 17  1  0  0  0
 18 20  1  0  0  0
 17 16  1  0  0  0
 16 15  1  0  0  0
 15 14  1  0  0  0
 14 13  1  0  0  0
 13 12  1  0  0  0
 12  1  1  0  0  0
  1  2  1  0  0  0
  2  3  1  0  0  0
  3  4  1  0  0  0
  4  5  1  0  0  0
  5  6  1  0  0  0
  6  7  1  0  0  0
  7  8  1  0  0  0
  8  9  1  0  0  0
  9 10  1  0  0  0
 10 11  1  0  0  0
 20 21  1  0  0  0
M  END
> <minimizedAffinity>
-6.47789

> <CNNscore>
0.8262302876

> <CNNaffinity>
6.7261953354

> <CNN_VS>
5.5573863983

> <CNNaffinity_variance>
0.5532890558

$$$$



 21 20  0  0  0  0  0  0  0  0999 V2000
  -46.4135   57.1798   65.6256 C   0  0  0  0  0  0  0  0  0  0  0  0
  -47.4409   58.1084   65.0275 C   0  0  0  0  0  0  0  0  0  0  0  0
  -48.8221   57.6457   64.8345 C   0  0  0  0  0  0  0  0  0  0  0  0
  -49.9802   58.4586   65.3689 C   0  0  0  0  0  0  0  0  0  0  0  0
  -49.9142   59.8885   64.8336 C   0  0  0  0  0  0  0  0  0  0  0  0
  -51.1804   60.3130   64.0947 C   0  0  0  0  0  0  0  0  0  0  0  0
  -51.2549   59.6879   62.6991 C   0  0  0  0  0  0  0  0  0  0  0  0
  -49.9878   59.8502   61.8508 C   0  0  0  0  0  0  0  0  0  0  0  0
  -49.4236   58.5002   61.3884 C   0  0  0  0  0  0  0  0  0  0  0  0
  -50.4590   57.6507   60.6470 C   0  0  0  0  0  0  0  0  0  0  0  0
  -50.1167   57.4259   59.1691 C   0  0  0  0  0  0  0  0  0  0  0  0
  -45.0446   57.7959   65.3859 C   0  0  0  0  0  0  0  0  0  0  0  0
  -45.1233   59.3046   65.2343 C   0  0  0  0  0  0  0  0  0  0  0  0
  -43.7335   59.9335   65.2621 C   0  0  0  0  0  0  0  0  0  0  0  0
  -42.7203   58.9426   65.8181 C   0  0  0  0  0  0  0  0  0  0  0  0
  -41.5744   59.6656   66.5082 C   0  0  0  0  0  0  0  0  0  0  0  0
  -40.3981   59.8646   65.5579 C   0  0  0  0  0  0  0  0  0  0  0  0
  -40.2919   61.3284   65.1766 C   0  0  0  0  0  0  0  0  0  0  0  0
  -40.9155   61.7668   64.1763 O   0  0  0  0  0  0  0  0  0  0  0  0
  -39.5773   62.1123   65.8534 O   0  0  0  0  0  0  0  0  0  0  0  0
  -39.1096   61.7933   66.6001 H   0  0  0  0  0  0  0  0  0  0  0  0
 18 19  2  0  0  0
 18 17  1  0  0  0
 18 20  1  0  0  0
 17 16  1  0  0  0
 16 15  1  0  0  0
 15 14  1  0  0  0
 14 13  1  0  0  0
 13 12  1  0  0  0
 12  1  1  0  0  0
  1  2  1  0  0  0
  2  3  1  0  0  0
  3  4  1  0  0  0
  4  5  1  0  0  0
  5  6  1  0  0  0
  6  7  1  0  0  0
  7  8  1  0  0  0
  8  9  1  0  0  0
  9 10  1  0  0  0
 10 11  1  0  0  0
 20 21  1  0  0  0
M  END
> <minimizedAffinity>
-7.00266

> <CNNscore>
0.8204917908

> <CNNaffinity>
6.5191206932

> <CNN_VS>
5.3488850594

> <CNNaffinity_variance>
0.4974315763

$$$$



 21 20  0  0  0  0  0  0  0  0999 V2000
  -45.7623   57.0161   65.6738 C   0  0  0  0  0  0  0  0  0  0  0  0
  -46.3667   58.3513   66.0315 C   0  0  0  0  0  0  0  0  0  0  0  0
  -47.5377   58.8460   65.2946 C   0  0  0  0  0  0  0  0  0  0  0  0
  -48.3554   57.9030   64.4405 C   0  0  0  0  0  0  0  0  0  0  0  0
  -49.8455   58.0914   64.7227 C   0  0  0  0  0  0  0  0  0  0  0  0
  -50.1885   59.4872   65.2363 C   0  0  0  0  0  0  0  0  0  0  0  0
  -50.8222   60.3505   64.1421 C   0  0  0  0  0  0  0  0  0  0  0  0
  -51.2027   59.5946   62.8632 C   0  0  0  0  0  0  0  0  0  0  0  0
  -50.2228   59.8694   61.7149 C   0  0  0  0  0  0  0  0  0  0  0  0
  -49.7839   58.5917   60.9949 C   0  0  0  0  0  0  0  0  0  0  0  0
  -50.8463   57.4860   61.0146 C   0  0  0  0  0  0  0  0  0  0  0  0
  -44.4826   57.2856   64.8989 C   0  0  0  0  0  0  0  0  0  0  0  0
  -43.2494   57.1091   65.7668 C   0  0  0  0  0  0  0  0  0  0  0  0
  -42.3430   58.3340   65.6903 C   0  0  0  0  0  0  0  0  0  0  0  0
  -42.9736   59.3987   64.8035 C   0  0  0  0  0  0  0  0  0  0  0  0
  -42.0961   60.6386   64.7339 C   0  0  0  0  0  0  0  0  0  0  0  0
  -41.3340   60.8467   66.0386 C   0  0  0  0  0  0  0  0  0  0  0  0
  -39.8837   61.1699   65.7366 C   0  0  0  0  0  0  0  0  0  0  0  0
  -39.0885   60.2534   65.4061 O   0  0  0  0  0  0  0  0  0  0  0  0
  -39.4648   62.3535   65.8186 O   0  0  0  0  0  0  0  0  0  0  0  0
  -40.0510   63.0420   66.0642 H   0  0  0  0  0  0  0  0  0  0  0  0
 18 19  2  0  0  0
 18 17  1  0  0  0
 18 20  1  0  0  0
 17 16  1  0  0  0
 16 15  1  0  0  0
 15 14  1  0  0  0
 14 13  1  0  0  0
 13 12  1  0  0  0
 12  1  1  0  0  0
  1  2  1  0  0  0
  2  3  1  0  0  0
  3  4  1  0  0  0
  4  5  1  0  0  0
  5  6  1  0  0  0
  6  7  1  0  0  0
  7  8  1  0  0  0
  8  9  1  0  0  0
  9 10  1  0  0  0
 10 11  1  0  0  0
 20 21  1  0  0  0
M  END
> <minimizedAffinity>
-7.00056

> <CNNscore>
0.8067384958

> <CNNaffinity>
6.5174560547

> <CNN_VS>
5.2578825951

> <CNNaffinity_variance>
0.2931728065

$$$$



 21 20  0  0  0  0  0  0  0  0999 V2000
  -50.3363   59.8582   63.2059 C   0  0  0  0  0  0  0  0  0  0  0  0
  -50.4798   59.6291   64.6900 C   0  0  0  0  0  0  0  0  0  0  0  0
  -49.3345   59.1398   65.4697 C   0  0  0  0  0  0  0  0  0  0  0  0
  -48.1543   60.0457   65.7414 C   0  0  0  0  0  0  0  0  0  0  0  0
  -46.9066   59.2144   66.0370 C   0  0  0  0  0  0  0  0  0  0  0  0
  -46.9268   57.8416   65.3701 C   0  0  0  0  0  0  0  0  0  0  0  0
  -45.6860   57.0208   65.7322 C   0  0  0  0  0  0  0  0  0  0  0  0
  -44.4284   57.3615   64.9235 C   0  0  0  0  0  0  0  0  0  0  0  0
  -43.1456   57.1882   65.7475 C   0  0  0  0  0  0  0  0  0  0  0  0
  -42.3120   58.4702   65.8185 C   0  0  0  0  0  0  0  0  0  0  0  0
  -43.1242   59.7025   66.2349 C   0  0  0  0  0  0  0  0  0  0  0  0
  -49.8589   58.5552   62.5854 C   0  0  0  0  0  0  0  0  0  0  0  0
  -50.9550   57.8773   61.7828 C   0  0  0  0  0  0  0  0  0  0  0  0
  -50.4124   57.3241   60.4684 C   0  0  0  0  0  0  0  0  0  0  0  0
  -48.9121   57.0905   60.5771 C   0  0  0  0  0  0  0  0  0  0  0  0
  -48.4119   56.2239   59.4322 C   0  0  0  0  0  0  0  0  0  0  0  0
  -48.4921   56.9685   58.1034 C   0  0  0  0  0  0  0  0  0  0  0  0
  -48.0211   56.0633   56.9818 C   0  0  0  0  0  0  0  0  0  0  0  0
  -47.1330   55.1997   57.1987 O   0  0  0  0  0  0  0  0  0  0  0  0
  -48.5105   56.1722   55.8278 O   0  0  0  0  0  0  0  0  0  0  0  0
  -49.1726   56.8132   55.6582 H   0  0  0  0  0  0  0  0  0  0  0  0
 18 19  2  0  0  0
 18 17  1  0  0  0
 18 20  1  0  0  0
 17 16  1  0  0  0
 16 15  1  0  0  0
 15 14  1  0  0  0
 14 13  1  0  0  0
 13 12  1  0  0  0
 12  1  1  0  0  0
  1  2  1  0  0  0
  2  3  1  0  0  0
  3  4  1  0  0  0
  4  5  1  0  0  0
  5  6  1  0  0  0
  6  7  1  0  0  0
  7  8  1  0  0  0
  8  9  1  0  0  0
  9 10  1  0  0  0
 10 11  1  0  0  0
 20 21  1  0  0  0
M  END
> <minimizedAffinity>
-6.97389

> <CNNscore>
0.7813763022

> <CNNaffinity>
6.7651162148

> <CNN_VS>
5.2861013412

> <CNNaffinity_variance>
0.5986725688

$$$$



 21 20  0  0  0  0  0  0  0  0999 V2000
  -44.2145   57.5672   65.1368 C   0  0  0  0  0  0  0  0  0  0  0  0
  -45.5718   58.0466   65.5882 C   0  0  0  0  0  0  0  0  0  0  0  0
  -46.6541   58.2100   64.6080 C   0  0  0  0  0  0  0  0  0  0  0  0
  -48.0901   57.9541   65.0080 C   0  0  0  0  0  0  0  0  0  0  0  0
  -48.7584   59.2579   65.4425 C   0  0  0  0  0  0  0  0  0  0  0  0
  -50.2818   59.1705   65.4769 C   0  0  0  0  0  0  0  0  0  0  0  0
  -50.9264   60.1931   64.5374 C   0  0  0  0  0  0  0  0  0  0  0  0
  -50.3776   60.1897   63.1055 C   0  0  0  0  0  0  0  0  0  0  0  0
  -50.9742   59.0571   62.2595 C   0  0  0  0  0  0  0  0  0  0  0  0
  -50.0390   58.6048   61.1350 C   0  0  0  0  0  0  0  0  0  0  0  0
  -49.0963   57.4676   61.5473 C   0  0  0  0  0  0  0  0  0  0  0  0
  -43.1919   58.5984   65.5858 C   0  0  0  0  0  0  0  0  0  0  0  0
  -43.3355   59.9043   64.8247 C   0  0  0  0  0  0  0  0  0  0  0  0
  -42.0941   60.1912   63.9854 C   0  0  0  0  0  0  0  0  0  0  0  0
  -41.5582   61.5811   64.2993 C   0  0  0  0  0  0  0  0  0  0  0  0
  -40.8407   61.5976   65.6399 C   0  0  0  0  0  0  0  0  0  0  0  0
  -39.8399   60.4511   65.7420 C   0  0  0  0  0  0  0  0  0  0  0  0
  -38.4295   60.9911   65.6068 C   0  0  0  0  0  0  0  0  0  0  0  0
  -37.4563   60.1992   65.5206 O   0  0  0  0  0  0  0  0  0  0  0  0
  -38.2222   62.2319   65.5846 O   0  0  0  0  0  0  0  0  0  0  0  0
  -38.9421   62.8283   65.6484 H   0  0  0  0  0  0  0  0  0  0  0  0
 18 19  2  0  0  0
 18 17  1  0  0  0
 18 20  1  0  0  0
 17 16  1  0  0  0
 16 15  1  0  0  0
 15 14  1  0  0  0
 14 13  1  0  0  0
 13 12  1  0  0  0
 12  1  1  0  0  0
  1  2  1  0  0  0
  2  3  1  0  0  0
  3  4  1  0  0  0
  4  5  1  0  0  0
  5  6  1  0  0  0
  6  7  1  0  0  0
  7  8  1  0  0  0
  8  9  1  0  0  0
  9 10  1  0  0  0
 10 11  1  0  0  0
 20 21  1  0  0  0
M  END
> <minimizedAffinity>
-6.48630

> <CNNscore>
0.7779791355

> <CNNaffinity>
6.3898968697

> <CNN_VS>
4.9712066650

> <CNNaffinity_variance>
0.3418205082

$$$$



 21 20  0  0  0  0  0  0  0  0999 V2000
  -45.1870   57.0397   65.3458 C   0  0  0  0  0  0  0  0  0  0  0  0
  -46.3170   57.5213   66.2216 C   0  0  0  0  0  0  0  0  0  0  0  0
  -47.5237   58.0952   65.6105 C   0  0  0  0  0  0  0  0  0  0  0  0
  -47.8552   59.5579   65.8057 C   0  0  0  0  0  0  0  0  0  0  0  0
  -48.0115   60.2499   64.4522 C   0  0  0  0  0  0  0  0  0  0  0  0
  -49.3394   60.9878   64.3039 C   0  0  0  0  0  0  0  0  0  0  0  0
  -50.5229   60.0171   64.2706 C   0  0  0  0  0  0  0  0  0  0  0  0
  -51.1690   59.8343   62.8919 C   0  0  0  0  0  0  0  0  0  0  0  0
  -50.6186   58.6076   62.1526 C   0  0  0  0  0  0  0  0  0  0  0  0
  -49.8328   58.9811   60.8929 C   0  0  0  0  0  0  0  0  0  0  0  0
  -49.5421   60.4825   60.7792 C   0  0  0  0  0  0  0  0  0  0  0  0
  -44.5583   58.2618   64.6960 C   0  0  0  0  0  0  0  0  0  0  0  0
  -43.9791   59.2141   65.7270 C   0  0  0  0  0  0  0  0  0  0  0  0
  -42.4654   59.0550   65.8335 C   0  0  0  0  0  0  0  0  0  0  0  0
  -41.8293   60.3679   66.2683 C   0  0  0  0  0  0  0  0  0  0  0  0
  -40.3370   60.3726   65.9761 C   0  0  0  0  0  0  0  0  0  0  0  0
  -40.0281   61.1566   64.7048 C   0  0  0  0  0  0  0  0  0  0  0  0
  -38.5874   61.6286   64.7335 C   0  0  0  0  0  0  0  0  0  0  0  0
  -38.1004   62.1048   65.7907 O   0  0  0  0  0  0  0  0  0  0  0  0
  -37.8718   61.5520   63.7015 O   0  0  0  0  0  0  0  0  0  0  0  0
  -38.2274   61.1984   62.9100 H   0  0  0  0  0  0  0  0  0  0  0  0
 18 19  2  0  0  0
 18 17  1  0  0  0
 18 20  1  0  0  0
 17 16  1  0  0  0
 16 15  1  0  0  0
 15 14  1  0  0  0
 14 13  1  0  0  0
 13 12  1  0  0  0
 12  1  1  0  0  0
  1  2  1  0  0  0
  2  3  1  0  0  0
  3  4  1  0  0  0
  4  5  1  0  0  0
  5  6  1  0  0  0
  6  7  1  0  0  0
  7  8  1  0  0  0
  8  9  1  0  0  0
  9 10  1  0  0  0
 10 11  1  0  0  0
 20 21  1  0  0  0
M  END
> <minimizedAffinity>
-6.34578

> <CNNscore>
0.7409963608

> <CNNaffinity>
6.3613986969

> <CNN_VS>
4.7137732506

> <CNNaffinity_variance>
0.3418584466

$$$$



 21 20  0  0  0  0  0  0  0  0999 V2000
  -45.4523   58.0198   65.6167 C   0  0  0  0  0  0  0  0  0  0  0  0
  -46.4269   58.2905   64.4974 C   0  0  0  0  0  0  0  0  0  0  0  0
  -47.8663   58.0914   64.7154 C   0  0  0  0  0  0  0  0  0  0  0  0
  -48.6793   59.1390   65.4428 C   0  0  0  0  0  0  0  0  0  0  0  0
  -50.1266   59.1196   64.9526 C   0  0  0  0  0  0  0  0  0  0  0  0
  -50.4853   60.3259   64.0890 C   0  0  0  0  0  0  0  0  0  0  0  0
  -51.1841   59.9040   62.7937 C   0  0  0  0  0  0  0  0  0  0  0  0
  -50.8813   58.4727   62.3339 C   0  0  0  0  0  0  0  0  0  0  0  0
  -49.9963   58.4422   61.0808 C   0  0  0  0  0  0  0  0  0  0  0  0
  -50.2111   57.1831   60.2370 C   0  0  0  0  0  0  0  0  0  0  0  0
  -49.4660   57.2134   58.8970 C   0  0  0  0  0  0  0  0  0  0  0  0
  -44.0615   58.3582   65.1048 C   0  0  0  0  0  0  0  0  0  0  0  0
  -43.7342   59.8292   65.2901 C   0  0  0  0  0  0  0  0  0  0  0  0
  -42.3000   60.1312   64.8662 C   0  0  0  0  0  0  0  0  0  0  0  0
  -42.2510   60.4651   63.3817 C   0  0  0  0  0  0  0  0  0  0  0  0
  -41.2021   61.5286   63.0975 C   0  0  0  0  0  0  0  0  0  0  0  0
  -39.8033   60.9224   63.0499 C   0  0  0  0  0  0  0  0  0  0  0  0
  -39.3510   60.7948   61.6082 C   0  0  0  0  0  0  0  0  0  0  0  0
  -38.1434   60.5637   61.3438 O   0  0  0  0  0  0  0  0  0  0  0  0
  -40.1772   60.9236   60.6681 O   0  0  0  0  0  0  0  0  0  0  0  0
  -41.0787   61.0959   60.8569 H   0  0  0  0  0  0  0  0  0  0  0  0
 18 19  2  0  0  0
 18 17  1  0  0  0
 18 20  1  0  0  0
 17 16  1  0  0  0
 16 15  1  0  0  0
 15 14  1  0  0  0
 14 13  1  0  0  0
 13 12  1  0  0  0
 12  1  1  0  0  0
  1  2  1  0  0  0
  2  3  1  0  0  0
  3  4  1  0  0  0
  4  5  1  0  0  0
  5  6  1  0  0  0
  6  7  1  0  0  0
  7  8  1  0  0  0
  8  9  1  0  0  0
  9 10  1  0  0  0
 10 11  1  0  0  0
 20 21  1  0  0  0
M  END
> <minimizedAffinity>
-6.89158

> <CNNscore>
0.7284724116

> <CNNaffinity>
6.4440107346

> <CNN_VS>
4.6942839622

> <CNNaffinity_variance>
0.4790754914

$$$$
