


 21 20  0  0  0  0  0  0  0  0999 V2000
  -46.9629   57.3373   66.2384 C   0  0  0  0  0  0  0  0  0  0  0  0
  -47.7062   58.1173   65.1824 C   0  0  0  0  0  0  0  0  0  0  0  0
  -49.1630   57.9738   65.0556 C   0  0  0  0  0  0  0  0  0  0  0  0
  -49.9179   58.7588   64.0062 C   0  0  0  0  0  0  0  0  0  0  0  0
  -49.1217   58.8005   62.7024 C   0  0  0  0  0  0  0  0  0  0  0  0
  -49.9963   59.0168   61.4703 C   0  0  0  0  0  0  0  0  0  0  0  0
  -50.1790   57.7217   60.6745 C   0  0  0  0  0  0  0  0  0  0  0  0
  -48.8879   57.1354   60.0908 C   0  0  0  0  0  0  0  0  0  0  0  0
  -48.3779   57.9410   58.8885 C   0  0  0  0  0  0  0  0  0  0  0  0
  -46.8707   57.7853   58.6703 C   0  0  0  0  0  0  0  0  0  0  0  0
  -46.5010   57.3842   57.2371 C   0  0  0  0  0  0  0  0  0  0  0  0
  -45.5125   57.7912   66.2071 C   0  0  0  0  0  0  0  0  0  0  0  0
  -44.9254   57.7090   64.8093 C   0  0  0  0  0  0  0  0  0  0  0  0
  -43.4830   58.2059   64.7885 C   0  0  0  0  0  0  0  0  0  0  0  0
  -42.7678   57.7945   66.0679 C   0  0  0  0  0  0  0  0  0  0  0  0
  -42.0777   58.9861   66.7129 C   0  0  0  0  0  0  0  0  0  0  0  0
  -40.7625   59.3064   66.0101 C   0  0  0  0  0  0  0  0  0  0  0  0
  -40.7689   60.7507   65.5483 C   0  0  0  0  0  0  0  0  0  0  0  0
  -41.1087   61.6653   66.3418 O   0  0  0  0  0  0  0  0  0  0  0  0
  -40.4398   61.0437   64.3698 O   0  0  0  0  0  0  0  0  0  0  0  0
  -40.1854   60.3679   63.7726 H   0  0  0  0  0  0  0  0  0  0  0  0
 18 19  2  0  0  0
 18 17  1  0  0  0
 18 20  1  0  0  0
 17 16  1  0  0  0
 16 15  1  0  0  0
 15 14  1  0  0  0
 14 13  1  0  0  0
 13 12  1  0  0  0
 12  1  1  0  0  0
  1  2  1  0  0  0
  2  3  1  0  0  0
  3  4  1  0  0  0
  4  5  1  0  0  0
  5  6  1  0  0  0
  6  7  1  0  0  0
  7  8  1  0  0  0
  8  9  1  0  0  0
  9 10  1  0  0  0
 10 11  1  0  0  0
 20 21  1  0  0  0
M  END
> <minimizedAffinity>
-6.90246

> <CNNscore>
0.9510953426

> <CNNaffinity>
6.9546575546

> <CNN_VS>
6.6145424843

> <CNNaffinity_variance>
0.2271819562

$$$$



 21 20  0  0  0  0  0  0  0  0999 V2000
  -49.7601   58.0563   65.9739 C   0  0  0  0  0  0  0  0  0  0  0  0
  -50.2687   59.4616   65.7685 C   0  0  0  0  0  0  0  0  0  0  0  0
  -49.6471   60.3246   64.7547 C   0  0  0  0  0  0  0  0  0  0  0  0
  -50.0819   60.2372   63.3087 C   0  0  0  0  0  0  0  0  0  0  0  0
  -51.3000   59.3237   63.1771 C   0  0  0  0  0  0  0  0  0  0  0  0
  -51.0359   58.0892   62.3192 C   0  0  0  0  0  0  0  0  0  0  0  0
  -49.6240   58.1057   61.7274 C   0  0  0  0  0  0  0  0  0  0  0  0
  -49.4830   57.3975   60.3745 C   0  0  0  0  0  0  0  0  0  0  0  0
  -48.6157   58.1947   59.3913 C   0  0  0  0  0  0  0  0  0  0  0  0
  -47.2723   57.5180   59.1066 C   0  0  0  0  0  0  0  0  0  0  0  0
  -46.5300   58.1188   57.9068 C   0  0  0  0  0  0  0  0  0  0  0  0
  -48.2746   58.0551   65.6510 C   0  0  0  0  0  0  0  0  0  0  0  0
  -47.4362   58.4640   66.8489 C   0  0  0  0  0  0  0  0  0  0  0  0
  -46.0631   57.7998   66.8118 C   0  0  0  0  0  0  0  0  0  0  0  0
  -45.3825   58.0763   65.4785 C   0  0  0  0  0  0  0  0  0  0  0  0
  -44.1535   57.1984   65.3025 C   0  0  0  0  0  0  0  0  0  0  0  0
  -43.2337   57.2905   66.5157 C   0  0  0  0  0  0  0  0  0  0  0  0
  -42.3965   58.5516   66.4270 C   0  0  0  0  0  0  0  0  0  0  0  0
  -41.7207   58.7891   65.3933 O   0  0  0  0  0  0  0  0  0  0  0  0
  -42.3679   59.3656   67.3861 O   0  0  0  0  0  0  0  0  0  0  0  0
  -42.8686   59.1958   68.1597 H   0  0  0  0  0  0  0  0  0  0  0  0
 18 19  2  0  0  0
 18 17  1  0  0  0
 18 20  1  0  0  0
 17 16  1  0  0  0
 16 15  1  0  0  0
 15 14  1  0  0  0
 14 13  1  0  0  0
 13 12  1  0  0  0
 12  1  1  0  0  0
  1  2  1  0  0  0
  2  3  1  0  0  0
  3  4  1  0  0  0
  4  5  1  0  0  0
  5  6  1  0  0  0
  6  7  1  0  0  0
  7  8  1  0  0  0
  8  9  1  0  0  0
  9 10  1  0  0  0
 10 11  1  0  0  0
 20 21  1  0  0  0
M  END
> <minimizedAffinity>
-7.09437

> <CNNscore>
0.7483612299

> <CNNaffinity>
6.6639213562

> <CNN_VS>
4.9870204926

> <CNNaffinity_variance>
0.1970743686

$$$$



 21 20  0  0  0  0  0  0  0  0999 V2000
  -47.6607   58.5527   64.7053 C   0  0  0  0  0  0  0  0  0  0  0  0
  -48.1041   59.9934   64.7657 C   0  0  0  0  0  0  0  0  0  0  0  0
  -49.5365   60.3202   64.7468 C   0  0  0  0  0  0  0  0  0  0  0  0
  -50.5642   59.2311   64.5346 C   0  0  0  0  0  0  0  0  0  0  0  0
  -51.2623   59.4178   63.1880 C   0  0  0  0  0  0  0  0  0  0  0  0
  -50.8291   58.3968   62.1394 C   0  0  0  0  0  0  0  0  0  0  0  0
  -49.4615   58.7446   61.5454 C   0  0  0  0  0  0  0  0  0  0  0  0
  -49.3330   58.5027   60.0366 C   0  0  0  0  0  0  0  0  0  0  0  0
  -48.1044   57.6517   59.6892 C   0  0  0  0  0  0  0  0  0  0  0  0
  -47.8564   57.5610   58.1813 C   0  0  0  0  0  0  0  0  0  0  0  0
  -46.5993   58.3111   57.7245 C   0  0  0  0  0  0  0  0  0  0  0  0
  -46.5444   58.3740   65.7216 C   0  0  0  0  0  0  0  0  0  0  0  0
  -45.2735   57.8493   65.0777 C   0  0  0  0  0  0  0  0  0  0  0  0
  -44.1040   57.8889   66.0568 C   0  0  0  0  0  0  0  0  0  0  0  0
  -42.7879   57.7270   65.3090 C   0  0  0  0  0  0  0  0  0  0  0  0
  -43.0298   57.4946   63.8259 C   0  0  0  0  0  0  0  0  0  0  0  0
  -42.2341   56.2956   63.3203 C   0  0  0  0  0  0  0  0  0  0  0  0
  -41.4427   56.6907   62.0887 C   0  0  0  0  0  0  0  0  0  0  0  0
  -41.8627   56.3841   60.9436 O   0  0  0  0  0  0  0  0  0  0  0  0
  -40.3606   57.3225   62.2028 O   0  0  0  0  0  0  0  0  0  0  0  0
  -40.0411   57.5546   63.0525 H   0  0  0  0  0  0  0  0  0  0  0  0
 18 19  2  0  0  0
 18 17  1  0  0  0
 18 20  1  0  0  0
 17 16  1  0  0  0
 16 15  1  0  0  0
 15 14  1  0  0  0
 14 13  1  0  0  0
 13 12  1  0  0  0
 12  1  1  0  0  0
  1  2  1  0  0  0
  2  3  1  0  0  0
  3  4  1  0  0  0
  4  5  1  0  0  0
  5  6  1  0  0  0
  6  7  1  0  0  0
  7  8  1  0  0  0
  8  9  1  0  0  0
  9 10  1  0  0  0
 10 11  1  0  0  0
 20 21  1  0  0  0
M  END
> <minimizedAffinity>
-6.96247

> <CNNscore>
0.7345340252

> <CNNaffinity>
6.5850143433

> <CNN_VS>
4.8369169235

> <CNNaffinity_variance>
0.2543897033

$$$$



 21 20  0  0  0  0  0  0  0  0999 V2000
  -46.3014   58.4041   66.5359 C   0  0  0  0  0  0  0  0  0  0  0  0
  -47.1893   58.4835   65.3188 C   0  0  0  0  0  0  0  0  0  0  0  0
  -48.1093   59.6176   65.1562 C   0  0  0  0  0  0  0  0  0  0  0  0
  -49.1481   59.9145   66.2146 C   0  0  0  0  0  0  0  0  0  0  0  0
  -50.5364   59.5080   65.7217 C   0  0  0  0  0  0  0  0  0  0  0  0
  -51.1751   60.5446   64.8012 C   0  0  0  0  0  0  0  0  0  0  0  0
  -51.7154   59.9038   63.5200 C   0  0  0  0  0  0  0  0  0  0  0  0
  -50.6442   59.4924   62.5028 C   0  0  0  0  0  0  0  0  0  0  0  0
  -50.5767   57.9708   62.3164 C   0  0  0  0  0  0  0  0  0  0  0  0
  -50.7012   57.5498   60.8499 C   0  0  0  0  0  0  0  0  0  0  0  0
  -49.3816   57.6457   60.0745 C   0  0  0  0  0  0  0  0  0  0  0  0
  -45.1576   57.4583   66.2073 C   0  0  0  0  0  0  0  0  0  0  0  0
  -44.7501   57.5510   64.7476 C   0  0  0  0  0  0  0  0  0  0  0  0
  -43.4883   58.3925   64.5812 C   0  0  0  0  0  0  0  0  0  0  0  0
  -42.3404   57.7786   65.3704 C   0  0  0  0  0  0  0  0  0  0  0  0
  -41.6760   58.8165   66.2611 C   0  0  0  0  0  0  0  0  0  0  0  0
  -40.2702   59.1448   65.7686 C   0  0  0  0  0  0  0  0  0  0  0  0
  -40.0516   60.6446   65.8112 C   0  0  0  0  0  0  0  0  0  0  0  0
  -40.9061   61.3917   66.3529 O   0  0  0  0  0  0  0  0  0  0  0  0
  -39.0189   61.1521   65.3024 O   0  0  0  0  0  0  0  0  0  0  0  0
  -38.3776   60.6022   64.8970 H   0  0  0  0  0  0  0  0  0  0  0  0
 18 19  2  0  0  0
 18 17  1  0  0  0
 18 20  1  0  0  0
 17 16  1  0  0  0
 16 15  1  0  0  0
 15 14  1  0  0  0
 14 13  1  0  0  0
 13 12  1  0  0  0
 12  1  1  0  0  0
  1  2  1  0  0  0
  2  3  1  0  0  0
  3  4  1  0  0  0
  4  5  1  0  0  0
  5  6  1  0  0  0
  6  7  1  0  0  0
  7  8  1  0  0  0
  8  9  1  0  0  0
  9 10  1  0  0  0
 10 11  1  0  0  0
 20 21  1  0  0  0
M  END
> <minimizedAffinity>
-7.06314

> <CNNscore>
0.7273515463

> <CNNaffinity>
6.4486532211

> <CNN_VS>
4.6904377937

> <CNNaffinity_variance>
0.2342941761

$$$$



 21 20  0  0  0  0  0  0  0  0999 V2000
  -51.3200   59.5420   63.2058 C   0  0  0  0  0  0  0  0  0  0  0  0
  -51.1741   60.3957   64.4411 C   0  0  0  0  0  0  0  0  0  0  0  0
  -50.4271   59.8862   65.5993 C   0  0  0  0  0  0  0  0  0  0  0  0
  -50.3957   58.4031   65.8939 C   0  0  0  0  0  0  0  0  0  0  0  0
  -48.9579   57.8866   65.8552 C   0  0  0  0  0  0  0  0  0  0  0  0
  -47.9299   58.9876   65.6088 C   0  0  0  0  0  0  0  0  0  0  0  0
  -46.7668   58.4899   64.7464 C   0  0  0  0  0  0  0  0  0  0  0  0
  -45.7331   57.6343   65.4887 C   0  0  0  0  0  0  0  0  0  0  0  0
  -44.3669   57.6412   64.7902 C   0  0  0  0  0  0  0  0  0  0  0  0
  -43.2375   57.1469   65.6978 C   0  0  0  0  0  0  0  0  0  0  0  0
  -42.6805   58.2345   66.6243 C   0  0  0  0  0  0  0  0  0  0  0  0
  -50.0891   59.7701   62.3434 C   0  0  0  0  0  0  0  0  0  0  0  0
  -49.3557   58.4730   62.0522 C   0  0  0  0  0  0  0  0  0  0  0  0
  -50.0315   57.7005   60.9234 C   0  0  0  0  0  0  0  0  0  0  0  0
  -49.4249   58.0920   59.5831 C   0  0  0  0  0  0  0  0  0  0  0  0
  -48.1067   57.3704   59.3509 C   0  0  0  0  0  0  0  0  0  0  0  0
  -47.4271   57.8633   58.0775 C   0  0  0  0  0  0  0  0  0  0  0  0
  -47.5402   56.8061   56.9964 C   0  0  0  0  0  0  0  0  0  0  0  0
  -47.3261   55.5976   57.2708 O   0  0  0  0  0  0  0  0  0  0  0  0
  -47.8438   57.1296   55.8190 O   0  0  0  0  0  0  0  0  0  0  0  0
  -48.0049   58.0279   55.6067 H   0  0  0  0  0  0  0  0  0  0  0  0
 18 19  2  0  0  0
 18 17  1  0  0  0
 18 20  1  0  0  0
 17 16  1  0  0  0
 16 15  1  0  0  0
 15 14  1  0  0  0
 14 13  1  0  0  0
 13 12  1  0  0  0
 12  1  1  0  0  0
  1  2  1  0  0  0
  2  3  1  0  0  0
  3  4  1  0  0  0
  4  5  1  0  0  0
  5  6  1  0  0  0
  6  7  1  0  0  0
  7  8  1  0  0  0
  8  9  1  0  0  0
  9 10  1  0  0  0
 10 11  1  0  0  0
 20 21  1  0  0  0
M  END
> <minimizedAffinity>
-7.59182

> <CNNscore>
0.7091010213

> <CNNaffinity>
6.6453032494

> <CNN_VS>
4.7121911049

> <CNNaffinity_variance>
0.1512429863

$$$$



 21 20  0  0  0  0  0  0  0  0999 V2000
  -50.1893   59.1546   63.9475 C   0  0  0  0  0  0  0  0  0  0  0  0
  -49.1248   58.1495   64.3114 C   0  0  0  0  0  0  0  0  0  0  0  0
  -48.9461   57.7472   65.7132 C   0  0  0  0  0  0  0  0  0  0  0  0
  -47.5939   57.2828   66.2067 C   0  0  0  0  0  0  0  0  0  0  0  0
  -46.5728   58.4142   66.0941 C   0  0  0  0  0  0  0  0  0  0  0  0
  -45.1322   57.9175   66.0063 C   0  0  0  0  0  0  0  0  0  0  0  0
  -44.6946   57.7116   64.5537 C   0  0  0  0  0  0  0  0  0  0  0  0
  -43.1790   57.7544   64.3241 C   0  0  0  0  0  0  0  0  0  0  0  0
  -42.5895   56.3577   64.0873 C   0  0  0  0  0  0  0  0  0  0  0  0
  -41.4062   56.3733   63.1162 C   0  0  0  0  0  0  0  0  0  0  0  0
  -41.8171   56.6185   61.6592 C   0  0  0  0  0  0  0  0  0  0  0  0
  -50.2983   59.1777   62.4314 C   0  0  0  0  0  0  0  0  0  0  0  0
  -50.9148   57.9000   61.8903 C   0  0  0  0  0  0  0  0  0  0  0  0
  -50.4149   57.6025   60.4799 C   0  0  0  0  0  0  0  0  0  0  0  0
  -49.2313   58.4986   60.1428 C   0  0  0  0  0  0  0  0  0  0  0  0
  -47.9849   57.6727   59.8661 C   0  0  0  0  0  0  0  0  0  0  0  0
  -47.4188   57.9781   58.4831 C   0  0  0  0  0  0  0  0  0  0  0  0
  -47.7027   56.8187   57.5480 C   0  0  0  0  0  0  0  0  0  0  0  0
  -48.0002   57.0362   56.3456 O   0  0  0  0  0  0  0  0  0  0  0  0
  -47.6474   55.6339   57.9678 O   0  0  0  0  0  0  0  0  0  0  0  0
  -47.4264   55.4637   58.8624 H   0  0  0  0  0  0  0  0  0  0  0  0
 18 19  2  0  0  0
 18 17  1  0  0  0
 18 20  1  0  0  0
 17 16  1  0  0  0
 16 15  1  0  0  0
 15 14  1  0  0  0
 14 13  1  0  0  0
 13 12  1  0  0  0
 12  1  1  0  0  0
  1  2  1  0  0  0
  2  3  1  0  0  0
  3  4  1  0  0  0
  4  5  1  0  0  0
  5  6  1  0  0  0
  6  7  1  0  0  0
  7  8  1  0  0  0
  8  9  1  0  0  0
  9 10  1  0  0  0
 10 11  1  0  0  0
 20 21  1  0  0  0
M  END
> <minimizedAffinity>
-6.88543

> <CNNscore>
0.7087857127

> <CNNaffinity>
6.7443628311

> <CNN_VS>
4.7803082466

> <CNNaffinity_variance>
0.2376376092

$$$$



 21 20  0  0  0  0  0  0  0  0999 V2000
  -45.6962   57.4955   66.5058 C   0  0  0  0  0  0  0  0  0  0  0  0
  -45.5220   57.9957   65.0932 C   0  0  0  0  0  0  0  0  0  0  0  0
  -44.2309   57.8300   64.4116 C   0  0  0  0  0  0  0  0  0  0  0  0
  -43.3856   56.6023   64.6677 C   0  0  0  0  0  0  0  0  0  0  0  0
  -41.9535   56.8370   64.1889 C   0  0  0  0  0  0  0  0  0  0  0  0
  -41.5768   55.9862   62.9790 C   0  0  0  0  0  0  0  0  0  0  0  0
  -41.7861   56.7477   61.6673 C   0  0  0  0  0  0  0  0  0  0  0  0
  -40.5501   57.4933   61.1498 C   0  0  0  0  0  0  0  0  0  0  0  0
  -40.6567   59.0091   61.3634 C   0  0  0  0  0  0  0  0  0  0  0  0
  -40.2769   59.8093   60.1148 C   0  0  0  0  0  0  0  0  0  0  0  0
  -38.8504   59.5325   59.6246 C   0  0  0  0  0  0  0  0  0  0  0  0
  -47.1831   57.2766   66.7340 C   0  0  0  0  0  0  0  0  0  0  0  0
  -48.0179   57.8447   65.6001 C   0  0  0  0  0  0  0  0  0  0  0  0
  -49.0337   58.8578   66.1191 C   0  0  0  0  0  0  0  0  0  0  0  0
  -50.3184   58.7762   65.3064 C   0  0  0  0  0  0  0  0  0  0  0  0
  -50.1879   59.5487   64.0032 C   0  0  0  0  0  0  0  0  0  0  0  0
  -51.2762   59.1454   63.0136 C   0  0  0  0  0  0  0  0  0  0  0  0
  -50.7470   58.0725   62.0820 C   0  0  0  0  0  0  0  0  0  0  0  0
  -49.5162   57.8162   62.0494 O   0  0  0  0  0  0  0  0  0  0  0  0
  -51.5323   57.4356   61.3332 O   0  0  0  0  0  0  0  0  0  0  0  0
  -52.4507   57.6207   61.3517 H   0  0  0  0  0  0  0  0  0  0  0  0
 18 19  2  0  0  0
 18 17  1  0  0  0
 18 20  1  0  0  0
 17 16  1  0  0  0
 16 15  1  0  0  0
 15 14  1  0  0  0
 14 13  1  0  0  0
 13 12  1  0  0  0
 12  1  1  0  0  0
  1  2  1  0  0  0
  2  3  1  0  0  0
  3  4  1  0  0  0
  4  5  1  0  0  0
  5  6  1  0  0  0
  6  7  1  0  0  0
  7  8  1  0  0  0
  8  9  1  0  0  0
  9 10  1  0  0  0
 10 11  1  0  0  0
 20 21  1  0  0  0
M  END
> <minimizedAffinity>
-6.47875

> <CNNscore>
0.6506180763

> <CNNaffinity>
6.3077111244

> <CNN_VS>
4.1039109230

> <CNNaffinity_variance>
0.5968973637

$$$$



 21 20  0  0  0  0  0  0  0  0999 V2000
  -50.1034   59.6624   62.0162 C   0  0  0  0  0  0  0  0  0  0  0  0
  -49.1260   59.9422   63.1307 C   0  0  0  0  0  0  0  0  0  0  0  0
  -48.8429   58.9065   64.1337 C   0  0  0  0  0  0  0  0  0  0  0  0
  -48.0864   59.2544   65.3963 C   0  0  0  0  0  0  0  0  0  0  0  0
  -47.1161   58.1305   65.7580 C   0  0  0  0  0  0  0  0  0  0  0  0
  -45.8671   58.1088   64.8809 C   0  0  0  0  0  0  0  0  0  0  0  0
  -44.6223   57.7186   65.6823 C   0  0  0  0  0  0  0  0  0  0  0  0
  -43.6692   56.7548   64.9653 C   0  0  0  0  0  0  0  0  0  0  0  0
  -43.0640   57.3743   63.6986 C   0  0  0  0  0  0  0  0  0  0  0  0
  -42.1119   58.5332   64.0053 C   0  0  0  0  0  0  0  0  0  0  0  0
  -41.0027   58.1638   64.9978 C   0  0  0  0  0  0  0  0  0  0  0  0
  -50.7264   58.3019   62.2841 C   0  0  0  0  0  0  0  0  0  0  0  0
  -50.6583   57.3999   61.0647 C   0  0  0  0  0  0  0  0  0  0  0  0
  -49.9431   58.0917   59.9081 C   0  0  0  0  0  0  0  0  0  0  0  0
  -48.7296   57.2782   59.4800 C   0  0  0  0  0  0  0  0  0  0  0  0
  -47.7231   58.1486   58.7440 C   0  0  0  0  0  0  0  0  0  0  0  0
  -46.5816   57.3104   58.1778 C   0  0  0  0  0  0  0  0  0  0  0  0
  -47.0516   56.5817   56.9339 C   0  0  0  0  0  0  0  0  0  0  0  0
  -47.7452   57.1832   56.0744 O   0  0  0  0  0  0  0  0  0  0  0  0
  -46.7559   55.3719   56.7549 O   0  0  0  0  0  0  0  0  0  0  0  0
  -46.2395   54.9168   57.3906 H   0  0  0  0  0  0  0  0  0  0  0  0
 18 19  2  0  0  0
 18 17  1  0  0  0
 18 20  1  0  0  0
 17 16  1  0  0  0
 16 15  1  0  0  0
 15 14  1  0  0  0
 14 13  1  0  0  0
 13 12  1  0  0  0
 12  1  1  0  0  0
  1  2  1  0  0  0
  2  3  1  0  0  0
  3  4  1  0  0  0
  4  5  1  0  0  0
  5  6  1  0  0  0
  6  7  1  0  0  0
  7  8  1  0  0  0
  8  9  1  0  0  0
  9 10  1  0  0  0
 10 11  1  0  0  0
 20 21  1  0  0  0
M  END
> <minimizedAffinity>
-7.18249

> <CNNscore>
0.6413185596

> <CNNaffinity>
6.5541725159

> <CNN_VS>
4.2033123970

> <CNNaffinity_variance>
0.1349340379

$$$$



 21 20  0  0  0  0  0  0  0  0999 V2000
  -50.1243   59.9181   65.6964 C   0  0  0  0  0  0  0  0  0  0  0  0
  -51.0405   60.3579   64.5815 C   0  0  0  0  0  0  0  0  0  0  0  0
  -51.1828   59.5253   63.3792 C   0  0  0  0  0  0  0  0  0  0  0  0
  -50.2010   59.6615   62.2368 C   0  0  0  0  0  0  0  0  0  0  0  0
  -49.3396   58.4040   62.1270 C   0  0  0  0  0  0  0  0  0  0  0  0
  -49.9124   57.3647   61.1671 C   0  0  0  0  0  0  0  0  0  0  0  0
  -49.5862   57.7030   59.7100 C   0  0  0  0  0  0  0  0  0  0  0  0
  -48.4098   56.9208   59.1136 C   0  0  0  0  0  0  0  0  0  0  0  0
  -47.1585   57.7935   58.9484 C   0  0  0  0  0  0  0  0  0  0  0  0
  -46.6636   57.8474   57.5007 C   0  0  0  0  0  0  0  0  0  0  0  0
  -47.5676   57.0915   56.5194 C   0  0  0  0  0  0  0  0  0  0  0  0
  -50.2634   58.4108   65.8360 C   0  0  0  0  0  0  0  0  0  0  0  0
  -48.9123   57.7184   65.8525 C   0  0  0  0  0  0  0  0  0  0  0  0
  -47.7747   58.7336   65.9086 C   0  0  0  0  0  0  0  0  0  0  0  0
  -46.7376   58.4191   64.8395 C   0  0  0  0  0  0  0  0  0  0  0  0
  -45.4510   57.9032   65.4646 C   0  0  0  0  0  0  0  0  0  0  0  0
  -44.3372   57.8037   64.4273 C   0  0  0  0  0  0  0  0  0  0  0  0
  -43.2560   56.8656   64.9275 C   0  0  0  0  0  0  0  0  0  0  0  0
  -42.2155   57.3291   65.4605 O   0  0  0  0  0  0  0  0  0  0  0  0
  -43.3893   55.6201   64.8093 O   0  0  0  0  0  0  0  0  0  0  0  0
  -44.1616   55.2670   64.4133 H   0  0  0  0  0  0  0  0  0  0  0  0
 18 19  2  0  0  0
 18 17  1  0  0  0
 18 20  1  0  0  0
 17 16  1  0  0  0
 16 15  1  0  0  0
 15 14  1  0  0  0
 14 13  1  0  0  0
 13 12  1  0  0  0
 12  1  1  0  0  0
  1  2  1  0  0  0
  2  3  1  0  0  0
  3  4  1  0  0  0
  4  5  1  0  0  0
  5  6  1  0  0  0
  6  7  1  0  0  0
  7  8  1  0  0  0
  8  9  1  0  0  0
  9 10  1  0  0  0
 10 11  1  0  0  0
 20 21  1  0  0  0
M  END
> <minimizedAffinity>
-7.81236

> <CNNscore>
0.6263511181

> <CNNaffinity>
6.4991159439

> <CNN_VS>
4.0707283020

> <CNNaffinity_variance>
0.1638609469

$$$$
