


 25 25  0  0  0  0  0  0  0  0999 V2000
  -44.5752   58.0188   64.7864 C   0  0  0  0  0  0  0  0  0  0  0  0
  -45.0495   57.8470   66.2371 C   0  0  0  0  0  0  0  0  0  0  0  0
  -46.4136   58.4953   66.4297 C   0  0  0  0  0  0  0  0  0  0  0  0
  -46.9603   58.9404   65.0729 C   0  0  0  0  0  0  0  0  0  0  0  0
  -48.4887   58.9386   65.0945 C   0  0  0  0  0  0  0  0  0  0  0  0
  -49.5421   59.5548   62.7308 C   0  0  0  0  0  0  0  0  0  0  0  0
  -48.9717   59.9908   64.0946 C   0  0  0  0  0  0  0  0  0  0  0  0
  -49.5356   58.0878   62.2743 C   0  0  0  0  0  0  0  0  0  0  0  0
  -50.2887   58.0253   60.9374 C   0  0  0  0  0  0  0  0  0  0  0  0
  -49.5481   57.8796   59.5865 C   0  0  0  0  0  0  0  0  0  0  0  0
  -48.0139   57.7529   59.5104 C   0  0  0  0  0  0  0  0  0  0  0  0
  -46.3052   58.1223   57.6741 C   0  0  0  0  0  0  0  0  0  0  0  0
  -47.6470   57.4857   58.0443 C   0  0  0  0  0  0  0  0  0  0  0  0
  -43.0314   58.0634   64.6466 C   0  0  0  0  0  0  0  0  0  0  0  0
  -42.3554   59.0124   65.6643 C   0  0  0  0  0  0  0  0  0  0  0  0
  -38.8581   58.0288   64.9184 C   0  0  0  0  0  0  0  0  0  0  0  0
  -38.1471   59.1878   65.2565 C   0  0  0  0  0  0  0  0  0  0  0  0
  -40.2500   57.9855   65.0622 C   0  0  0  0  0  0  0  0  0  0  0  0
  -38.8526   60.2924   65.7333 C   0  0  0  0  0  0  0  0  0  0  0  0
  -40.2393   60.2452   65.8667 C   0  0  0  0  0  0  0  0  0  0  0  0
  -40.9656   59.1024   65.5080 C   0  0  0  0  0  0  0  0  0  0  0  0
  -38.2393   61.4493   66.0844 O   0  0  0  0  0  0  0  0  0  0  0  0
  -40.8880   61.3526   66.3298 O   0  0  0  0  0  0  0  0  0  0  0  0
  -37.3083   61.5268   66.0114 H   0  0  0  0  0  0  0  0  0  0  0  0
  -40.3998   62.1158   66.5691 H   0  0  0  0  0  0  0  0  0  0  0  0
 12 13  1  0  0  0
  9 10  2  0  0  0
  9  8  1  0  0  0
  6  7  2  0  0  0
  6  8  1  0  0  0
 10 11  1  0  0  0
  7  5  1  0  0  0
 16 17  2  0  0  0
 16 18  1  0  0  0
 17 19  1  0  0  0
 18 21  2  0  0  0
 13 11  1  0  0  0
  5  4  1  0  0  0
  4  3  1  0  0  0
  3  2  1  0  0  0
  2  1  1  0  0  0
  1 14  1  0  0  0
 14 15  1  0  0  0
 15 21  1  0  0  0
 19 20  2  0  0  0
 19 22  1  0  0  0
 20 21  1  0  0  0
 20 23  1  0  0  0
 22 24  1  0  0  0
 23 25  1  0  0  0
M  END
> <minimizedAffinity>
-8.82367

> <CNNscore>
0.8299912810

> <CNNaffinity>
6.8760337830

> <CNN_VS>
5.7070479393

> <CNNaffinity_variance>
0.2493153512

$$$$



 25 25  0  0  0  0  0  0  0  0999 V2000
  -45.3722   57.3337   65.5848 C   0  0  0  0  0  0  0  0  0  0  0  0
  -46.2911   58.3764   66.2386 C   0  0  0  0  0  0  0  0  0  0  0  0
  -47.3180   58.8825   65.2349 C   0  0  0  0  0  0  0  0  0  0  0  0
  -48.4842   59.5286   65.9837 C   0  0  0  0  0  0  0  0  0  0  0  0
  -49.7699   58.7393   65.7380 C   0  0  0  0  0  0  0  0  0  0  0  0
  -51.2172   60.0956   63.9654 C   0  0  0  0  0  0  0  0  0  0  0  0
  -50.8823   59.7425   65.4278 C   0  0  0  0  0  0  0  0  0  0  0  0
  -50.3866   59.5652   62.7866 C   0  0  0  0  0  0  0  0  0  0  0  0
  -50.9971   58.2188   62.3710 C   0  0  0  0  0  0  0  0  0  0  0  0
  -50.7185   57.5857   60.9867 C   0  0  0  0  0  0  0  0  0  0  0  0
  -49.7831   58.2549   59.9607 C   0  0  0  0  0  0  0  0  0  0  0  0
  -47.4835   57.7014   59.0476 C   0  0  0  0  0  0  0  0  0  0  0  0
  -48.8751   57.1601   59.3840 C   0  0  0  0  0  0  0  0  0  0  0  0
  -44.4874   57.9186   64.4535 C   0  0  0  0  0  0  0  0  0  0  0  0
  -42.9975   57.5218   64.5796 C   0  0  0  0  0  0  0  0  0  0  0  0
  -41.4647   56.7569   61.2901 C   0  0  0  0  0  0  0  0  0  0  0  0
  -40.7478   57.9298   61.0187 C   0  0  0  0  0  0  0  0  0  0  0  0
  -42.2015   56.6361   62.4744 C   0  0  0  0  0  0  0  0  0  0  0  0
  -40.7870   58.9699   61.9471 C   0  0  0  0  0  0  0  0  0  0  0  0
  -41.5290   58.8460   63.1206 C   0  0  0  0  0  0  0  0  0  0  0  0
  -42.2712   57.6897   63.3928 C   0  0  0  0  0  0  0  0  0  0  0  0
  -40.1196   60.1350   61.7606 O   0  0  0  0  0  0  0  0  0  0  0  0
  -41.5442   59.8925   63.9960 O   0  0  0  0  0  0  0  0  0  0  0  0
  -39.6078   60.2630   60.9862 H   0  0  0  0  0  0  0  0  0  0  0  0
  -41.0468   60.6649   63.8116 H   0  0  0  0  0  0  0  0  0  0  0  0
 12 13  1  0  0  0
  9 10  2  0  0  0
  9  8  1  0  0  0
  6  7  2  0  0  0
  6  8  1  0  0  0
 10 11  1  0  0  0
  7  5  1  0  0  0
 16 17  2  0  0  0
 16 18  1  0  0  0
 17 19  1  0  0  0
 18 21  2  0  0  0
 13 11  1  0  0  0
  5  4  1  0  0  0
  4  3  1  0  0  0
  3  2  1  0  0  0
  2  1  1  0  0  0
  1 14  1  0  0  0
 14 15  1  0  0  0
 15 21  1  0  0  0
 19 20  2  0  0  0
 19 22  1  0  0  0
 20 21  1  0  0  0
 20 23  1  0  0  0
 22 24  1  0  0  0
 23 25  1  0  0  0
M  END
> <minimizedAffinity>
-8.75527

> <CNNscore>
0.7521188855

> <CNNaffinity>
6.8450937271

> <CNN_VS>
5.1483244896

> <CNNaffinity_variance>
0.1851394773

$$$$



 25 25  0  0  0  0  0  0  0  0999 V2000
  -50.8659   57.6494   61.5199 C   0  0  0  0  0  0  0  0  0  0  0  0
  -51.0807   58.7851   62.5313 C   0  0  0  0  0  0  0  0  0  0  0  0
  -50.3537   58.4803   63.8339 C   0  0  0  0  0  0  0  0  0  0  0  0
  -49.0787   59.3207   63.9123 C   0  0  0  0  0  0  0  0  0  0  0  0
  -48.4597   59.2100   65.3055 C   0  0  0  0  0  0  0  0  0  0  0  0
  -47.1793   57.0740   66.2406 C   0  0  0  0  0  0  0  0  0  0  0  0
  -48.4648   57.7329   65.7033 C   0  0  0  0  0  0  0  0  0  0  0  0
  -45.8359   57.8186   66.2816 C   0  0  0  0  0  0  0  0  0  0  0  0
  -45.3248   57.9124   64.8365 C   0  0  0  0  0  0  0  0  0  0  0  0
  -43.8850   57.4988   64.4487 C   0  0  0  0  0  0  0  0  0  0  0  0
  -42.8941   56.9354   65.4861 C   0  0  0  0  0  0  0  0  0  0  0  0
  -42.3147   58.8933   66.9893 C   0  0  0  0  0  0  0  0  0  0  0  0
  -41.8755   58.0408   65.7964 C   0  0  0  0  0  0  0  0  0  0  0  0
  -50.0148   58.0716   60.2943 C   0  0  0  0  0  0  0  0  0  0  0  0
  -48.5156   57.7206   60.4447 C   0  0  0  0  0  0  0  0  0  0  0  0
  -46.6047   58.1847   57.3001 C   0  0  0  0  0  0  0  0  0  0  0  0
  -46.6707   56.9093   56.7237 C   0  0  0  0  0  0  0  0  0  0  0  0
  -47.2233   58.4380   58.5302 C   0  0  0  0  0  0  0  0  0  0  0  0
  -47.3589   55.9023   57.4002 C   0  0  0  0  0  0  0  0  0  0  0  0
  -47.9658   56.1593   58.6284 C   0  0  0  0  0  0  0  0  0  0  0  0
  -47.8859   57.4224   59.2287 C   0  0  0  0  0  0  0  0  0  0  0  0
  -47.4709   54.6436   56.9094 O   0  0  0  0  0  0  0  0  0  0  0  0
  -48.6216   55.1414   59.2575 O   0  0  0  0  0  0  0  0  0  0  0  0
  -47.0788   54.4249   56.0870 H   0  0  0  0  0  0  0  0  0  0  0  0
  -48.6736   54.2974   58.8538 H   0  0  0  0  0  0  0  0  0  0  0  0
 12 13  1  0  0  0
  9 10  2  0  0  0
  9  8  1  0  0  0
  6  7  2  0  0  0
  6  8  1  0  0  0
 10 11  1  0  0  0
  7  5  1  0  0  0
 16 17  2  0  0  0
 16 18  1  0  0  0
 17 19  1  0  0  0
 18 21  2  0  0  0
 13 11  1  0  0  0
  5  4  1  0  0  0
  4  3  1  0  0  0
  3  2  1  0  0  0
  2  1  1  0  0  0
  1 14  1  0  0  0
 14 15  1  0  0  0
 15 21  1  0  0  0
 19 20  2  0  0  0
 19 22  1  0  0  0
 20 21  1  0  0  0
 20 23  1  0  0  0
 22 24  1  0  0  0
 23 25  1  0  0  0
M  END
> <minimizedAffinity>
-9.37082

> <CNNscore>
0.7492347360

> <CNNaffinity>
7.3041877747

> <CNN_VS>
5.4725513458

> <CNNaffinity_variance>
0.3808406293

$$$$



 25 25  0  0  0  0  0  0  0  0999 V2000
  -49.6611   59.8624   60.8956 C   0  0  0  0  0  0  0  0  0  0  0  0
  -49.6317   59.9074   62.4306 C   0  0  0  0  0  0  0  0  0  0  0  0
  -50.8788   59.2491   63.0048 C   0  0  0  0  0  0  0  0  0  0  0  0
  -51.5540   60.2091   63.9849 C   0  0  0  0  0  0  0  0  0  0  0  0
  -50.7616   60.2726   65.2904 C   0  0  0  0  0  0  0  0  0  0  0  0
  -49.2680   58.2552   66.1710 C   0  0  0  0  0  0  0  0  0  0  0  0
  -50.6510   58.8493   65.8400 C   0  0  0  0  0  0  0  0  0  0  0  0
  -47.9622   59.0004   65.8541 C   0  0  0  0  0  0  0  0  0  0  0  0
  -46.9733   58.6840   66.9856 C   0  0  0  0  0  0  0  0  0  0  0  0
  -45.6061   58.0117   66.7142 C   0  0  0  0  0  0  0  0  0  0  0  0
  -45.1453   57.6546   65.2874 C   0  0  0  0  0  0  0  0  0  0  0  0
  -43.0547   56.3459   64.6999 C   0  0  0  0  0  0  0  0  0  0  0  0
  -43.6106   57.6446   65.2891 C   0  0  0  0  0  0  0  0  0  0  0  0
  -49.6763   58.4209   60.3239 C   0  0  0  0  0  0  0  0  0  0  0  0
  -48.3047   57.7123   60.4236 C   0  0  0  0  0  0  0  0  0  0  0  0
  -46.5469   58.1415   57.1862 C   0  0  0  0  0  0  0  0  0  0  0  0
  -46.6653   56.8676   56.6149 C   0  0  0  0  0  0  0  0  0  0  0  0
  -47.0978   58.4060   58.4457 C   0  0  0  0  0  0  0  0  0  0  0  0
  -47.3369   55.8734   57.3261 C   0  0  0  0  0  0  0  0  0  0  0  0
  -47.8762   56.1414   58.5832 C   0  0  0  0  0  0  0  0  0  0  0  0
  -47.7428   57.4027   59.1776 C   0  0  0  0  0  0  0  0  0  0  0  0
  -47.4967   54.6170   56.8426 O   0  0  0  0  0  0  0  0  0  0  0  0
  -48.5179   55.1357   59.2454 O   0  0  0  0  0  0  0  0  0  0  0  0
  -47.1507   54.3912   56.0016 H   0  0  0  0  0  0  0  0  0  0  0  0
  -48.6057   54.2928   58.8456 H   0  0  0  0  0  0  0  0  0  0  0  0
 12 13  1  0  0  0
  9 10  2  0  0  0
  9  8  1  0  0  0
  6  7  2  0  0  0
  6  8  1  0  0  0
 10 11  1  0  0  0
  7  5  1  0  0  0
 16 17  2  0  0  0
 16 18  1  0  0  0
 17 19  1  0  0  0
 18 21  2  0  0  0
 13 11  1  0  0  0
  5  4  1  0  0  0
  4  3  1  0  0  0
  3  2  1  0  0  0
  2  1  1  0  0  0
  1 14  1  0  0  0
 14 15  1  0  0  0
 15 21  1  0  0  0
 19 20  2  0  0  0
 19 22  1  0  0  0
 20 21  1  0  0  0
 20 23  1  0  0  0
 22 24  1  0  0  0
 23 25  1  0  0  0
M  END
> <minimizedAffinity>
-9.79456

> <CNNscore>
0.7360876799

> <CNNaffinity>
7.3547515869

> <CNN_VS>
5.4137420654

> <CNNaffinity_variance>
0.5404434204

$$$$



 25 25  0  0  0  0  0  0  0  0999 V2000
  -47.1930   58.4689   65.2254 C   0  0  0  0  0  0  0  0  0  0  0  0
  -48.5713   57.8995   65.5932 C   0  0  0  0  0  0  0  0  0  0  0  0
  -49.6613   58.5773   64.7744 C   0  0  0  0  0  0  0  0  0  0  0  0
  -49.0464   59.1798   63.5107 C   0  0  0  0  0  0  0  0  0  0  0  0
  -50.0989   59.2742   62.4062 C   0  0  0  0  0  0  0  0  0  0  0  0
  -50.4139   57.2464   60.7135 C   0  0  0  0  0  0  0  0  0  0  0  0
  -50.6000   57.8583   62.1158 C   0  0  0  0  0  0  0  0  0  0  0  0
  -49.8443   58.0559   59.5384 C   0  0  0  0  0  0  0  0  0  0  0  0
  -48.3253   58.1472   59.7445 C   0  0  0  0  0  0  0  0  0  0  0  0
  -47.3665   57.0268   59.2756 C   0  0  0  0  0  0  0  0  0  0  0  0
  -47.8800   55.7719   58.5427 C   0  0  0  0  0  0  0  0  0  0  0  0
  -47.5190   57.0179   56.3643 C   0  0  0  0  0  0  0  0  0  0  0  0
  -47.2175   55.7447   57.1585 C   0  0  0  0  0  0  0  0  0  0  0  0
  -46.2018   58.4958   66.4178 C   0  0  0  0  0  0  0  0  0  0  0  0
  -45.2612   57.2681   66.4548 C   0  0  0  0  0  0  0  0  0  0  0  0
  -42.0435   59.1082   66.5806 C   0  0  0  0  0  0  0  0  0  0  0  0
  -41.2302   58.3385   65.7384 C   0  0  0  0  0  0  0  0  0  0  0  0
  -43.3762   58.7426   66.8048 C   0  0  0  0  0  0  0  0  0  0  0  0
  -41.7732   57.2045   65.1346 C   0  0  0  0  0  0  0  0  0  0  0  0
  -43.0986   56.8418   65.3683 C   0  0  0  0  0  0  0  0  0  0  0  0
  -43.9155   57.5872   66.2282 C   0  0  0  0  0  0  0  0  0  0  0  0
  -41.0542   56.4089   64.3052 O   0  0  0  0  0  0  0  0  0  0  0  0
  -43.5844   55.7200   64.7622 O   0  0  0  0  0  0  0  0  0  0  0  0
  -40.1590   56.6138   64.1190 H   0  0  0  0  0  0  0  0  0  0  0  0
  -43.0359   55.2232   64.1875 H   0  0  0  0  0  0  0  0  0  0  0  0
 12 13  1  0  0  0
  9 10  2  0  0  0
  9  8  1  0  0  0
  6  7  2  0  0  0
  6  8  1  0  0  0
 10 11  1  0  0  0
  7  5  1  0  0  0
 16 17  2  0  0  0
 16 18  1  0  0  0
 17 19  1  0  0  0
 18 21  2  0  0  0
 13 11  1  0  0  0
  5  4  1  0  0  0
  4  3  1  0  0  0
  3  2  1  0  0  0
  2  1  1  0  0  0
  1 14  1  0  0  0
 14 15  1  0  0  0
 15 21  1  0  0  0
 19 20  2  0  0  0
 19 22  1  0  0  0
 20 21  1  0  0  0
 20 23  1  0  0  0
 22 24  1  0  0  0
 23 25  1  0  0  0
M  END
> <minimizedAffinity>
-8.78737

> <CNNscore>
0.6917794943

> <CNNaffinity>
6.8700103760

> <CNN_VS>
4.7525324821

> <CNNaffinity_variance>
0.3903151155

$$$$



 25 25  0  0  0  0  0  0  0  0999 V2000
  -50.7755   58.3226   62.6387 C   0  0  0  0  0  0  0  0  0  0  0  0
  -50.3923   58.7515   64.0628 C   0  0  0  0  0  0  0  0  0  0  0  0
  -48.9145   58.4878   64.3170 C   0  0  0  0  0  0  0  0  0  0  0  0
  -48.7348   57.9215   65.7259 C   0  0  0  0  0  0  0  0  0  0  0  0
  -47.2639   57.5895   65.9765 C   0  0  0  0  0  0  0  0  0  0  0  0
  -44.9123   58.0621   64.8264 C   0  0  0  0  0  0  0  0  0  0  0  0
  -46.4496   58.1709   64.8194 C   0  0  0  0  0  0  0  0  0  0  0  0
  -44.1396   57.4909   66.0254 C   0  0  0  0  0  0  0  0  0  0  0  0
  -42.7103   58.0472   65.9506 C   0  0  0  0  0  0  0  0  0  0  0  0
  -41.5890   57.3219   65.1687 C   0  0  0  0  0  0  0  0  0  0  0  0
  -41.8537   56.0179   64.3908 C   0  0  0  0  0  0  0  0  0  0  0  0
  -41.9040   56.6825   61.9446 C   0  0  0  0  0  0  0  0  0  0  0  0
  -41.0605   56.0961   63.0792 C   0  0  0  0  0  0  0  0  0  0  0  0
  -49.6164   58.4726   61.6195 C   0  0  0  0  0  0  0  0  0  0  0  0
  -49.8837   57.7422   60.2822 C   0  0  0  0  0  0  0  0  0  0  0  0
  -47.0187   58.6085   58.0921 C   0  0  0  0  0  0  0  0  0  0  0  0
  -46.4783   57.3490   57.8011 C   0  0  0  0  0  0  0  0  0  0  0  0
  -48.1479   58.7216   58.9119 C   0  0  0  0  0  0  0  0  0  0  0  0
  -47.0840   56.2170   58.3460 C   0  0  0  0  0  0  0  0  0  0  0  0
  -48.2034   56.3373   59.1680 C   0  0  0  0  0  0  0  0  0  0  0  0
  -48.7387   57.5915   59.4883 C   0  0  0  0  0  0  0  0  0  0  0  0
  -46.6244   54.9635   58.1111 O   0  0  0  0  0  0  0  0  0  0  0  0
  -48.7578   55.2028   59.6849 O   0  0  0  0  0  0  0  0  0  0  0  0
  -45.8744   54.8343   57.5645 H   0  0  0  0  0  0  0  0  0  0  0  0
  -48.3978   54.3650   59.4690 H   0  0  0  0  0  0  0  0  0  0  0  0
 12 13  1  0  0  0
  9 10  2  0  0  0
  9  8  1  0  0  0
  6  7  2  0  0  0
  6  8  1  0  0  0
 10 11  1  0  0  0
  7  5  1  0  0  0
 16 17  2  0  0  0
 16 18  1  0  0  0
 17 19  1  0  0  0
 18 21  2  0  0  0
 13 11  1  0  0  0
  5  4  1  0  0  0
  4  3  1  0  0  0
  3  2  1  0  0  0
  2  1  1  0  0  0
  1 14  1  0  0  0
 14 15  1  0  0  0
 15 21  1  0  0  0
 19 20  2  0  0  0
 19 22  1  0  0  0
 20 21  1  0  0  0
 20 23  1  0  0  0
 22 24  1  0  0  0
 23 25  1  0  0  0
M  END
> <minimizedAffinity>
-8.39904

> <CNNscore>
0.6865393519

> <CNNaffinity>
7.2511777878

> <CNN_VS>
4.9782190323

> <CNNaffinity_variance>
0.4300167561

$$$$



 25 25  0  0  0  0  0  0  0  0999 V2000
  -43.4909   57.9933   66.3983 C   0  0  0  0  0  0  0  0  0  0  0  0
  -44.1844   57.2458   65.2497 C   0  0  0  0  0  0  0  0  0  0  0  0
  -45.4285   57.9998   64.8005 C   0  0  0  0  0  0  0  0  0  0  0  0
  -46.3932   58.1354   65.9790 C   0  0  0  0  0  0  0  0  0  0  0  0
  -47.6486   58.8933   65.5476 C   0  0  0  0  0  0  0  0  0  0  0  0
  -50.2827   58.6323   65.8109 C   0  0  0  0  0  0  0  0  0  0  0  0
  -48.8623   58.0479   65.9377 C   0  0  0  0  0  0  0  0  0  0  0  0
  -50.5310   60.0963   65.4162 C   0  0  0  0  0  0  0  0  0  0  0  0
  -51.4957   60.0868   64.2214 C   0  0  0  0  0  0  0  0  0  0  0  0
  -51.0061   59.8323   62.7756 C   0  0  0  0  0  0  0  0  0  0  0  0
  -49.5267   59.5384   62.4587 C   0  0  0  0  0  0  0  0  0  0  0  0
  -50.8735   57.6155   61.5010 C   0  0  0  0  0  0  0  0  0  0  0  0
  -49.4744   58.2009   61.7077 C   0  0  0  0  0  0  0  0  0  0  0  0
  -41.9436   57.9764   66.2959 C   0  0  0  0  0  0  0  0  0  0  0  0
  -41.3994   58.8718   65.1577 C   0  0  0  0  0  0  0  0  0  0  0  0
  -37.7417   58.2598   65.1144 C   0  0  0  0  0  0  0  0  0  0  0  0
  -37.2292   59.5075   65.4937 C   0  0  0  0  0  0  0  0  0  0  0  0
  -39.1241   58.0646   65.0112 C   0  0  0  0  0  0  0  0  0  0  0  0
  -38.1212   60.5459   65.7608 C   0  0  0  0  0  0  0  0  0  0  0  0
  -39.4962   60.3469   65.6484 C   0  0  0  0  0  0  0  0  0  0  0  0
  -40.0215   59.1125   65.2453 C   0  0  0  0  0  0  0  0  0  0  0  0
  -37.7064   61.7809   66.1355 O   0  0  0  0  0  0  0  0  0  0  0  0
  -40.3304   61.3939   65.9121 O   0  0  0  0  0  0  0  0  0  0  0  0
  -36.7911   61.9609   66.2241 H   0  0  0  0  0  0  0  0  0  0  0  0
  -39.9765   62.2186   66.1817 H   0  0  0  0  0  0  0  0  0  0  0  0
 12 13  1  0  0  0
  9 10  2  0  0  0
  9  8  1  0  0  0
  6  7  2  0  0  0
  6  8  1  0  0  0
 10 11  1  0  0  0
  7  5  1  0  0  0
 16 17  2  0  0  0
 16 18  1  0  0  0
 17 19  1  0  0  0
 18 21  2  0  0  0
 13 11  1  0  0  0
  5  4  1  0  0  0
  4  3  1  0  0  0
  3  2  1  0  0  0
  2  1  1  0  0  0
  1 14  1  0  0  0
 14 15  1  0  0  0
 15 21  1  0  0  0
 19 20  2  0  0  0
 19 22  1  0  0  0
 20 21  1  0  0  0
 20 23  1  0  0  0
 22 24  1  0  0  0
 23 25  1  0  0  0
M  END
> <minimizedAffinity>
-8.80904

> <CNNscore>
0.6451943517

> <CNNaffinity>
6.4204611778

> <CNN_VS>
4.1424450874

> <CNNaffinity_variance>
0.2253123075

$$$$



 25 25  0  0  0  0  0  0  0  0999 V2000
  -34.5802   56.9864   62.4451 C   0  0  0  0  0  0  0  0  0  0  0  0
  -33.4811   58.0193   62.1554 C   0  0  0  0  0  0  0  0  0  0  0  0
  -32.6493   57.5869   60.9557 C   0  0  0  0  0  0  0  0  0  0  0  0
  -31.3809   58.4378   60.8841 C   0  0  0  0  0  0  0  0  0  0  0  0
  -30.4088   58.0283   61.9904 C   0  0  0  0  0  0  0  0  0  0  0  0
  -28.0914   57.2576   60.9359 C   0  0  0  0  0  0  0  0  0  0  0  0
  -28.9934   58.3640   61.5170 C   0  0  0  0  0  0  0  0  0  0  0  0
  -28.5162   55.7811   60.9221 C   0  0  0  0  0  0  0  0  0  0  0  0
  -27.4858   55.0049   61.7552 C   0  0  0  0  0  0  0  0  0  0  0  0
  -27.7989   54.5046   63.1857 C   0  0  0  0  0  0  0  0  0  0  0  0
  -29.1762   54.7267   63.8409 C   0  0  0  0  0  0  0  0  0  0  0  0
  -29.7078   56.6570   65.3966 C   0  0  0  0  0  0  0  0  0  0  0  0
  -28.9328   55.3485   65.2229 C   0  0  0  0  0  0  0  0  0  0  0  0
  -36.0068   57.5943   62.4545 C   0  0  0  0  0  0  0  0  0  0  0  0
  -36.4469   58.1350   61.0735 C   0  0  0  0  0  0  0  0  0  0  0  0
  -40.0837   57.5547   61.5116 C   0  0  0  0  0  0  0  0  0  0  0  0
  -40.6414   58.5419   60.6883 C   0  0  0  0  0  0  0  0  0  0  0  0
  -38.6939   57.4308   61.6257 C   0  0  0  0  0  0  0  0  0  0  0  0
  -39.7865   59.3960   59.9919 C   0  0  0  0  0  0  0  0  0  0  0  0
  -38.4037   59.2722   60.1162 C   0  0  0  0  0  0  0  0  0  0  0  0
  -37.8328   58.3070   60.9555 C   0  0  0  0  0  0  0  0  0  0  0  0
  -40.2461   60.3743   59.1738 O   0  0  0  0  0  0  0  0  0  0  0  0
  -37.6067   60.1350   59.4219 O   0  0  0  0  0  0  0  0  0  0  0  0
  -41.1683   60.4947   59.0595 H   0  0  0  0  0  0  0  0  0  0  0  0
  -37.9912   60.7798   58.8611 H   0  0  0  0  0  0  0  0  0  0  0  0
 12 13  1  0  0  0
  9 10  2  0  0  0
  9  8  1  0  0  0
  6  7  2  0  0  0
  6  8  1  0  0  0
 10 11  1  0  0  0
  7  5  1  0  0  0
 16 17  2  0  0  0
 16 18  1  0  0  0
 17 19  1  0  0  0
 18 21  2  0  0  0
 13 11  1  0  0  0
  5  4  1  0  0  0
  4  3  1  0  0  0
  3  2  1  0  0  0
  2  1  1  0  0  0
  1 14  1  0  0  0
 14 15  1  0  0  0
 15 21  1  0  0  0
 19 20  2  0  0  0
 19 22  1  0  0  0
 20 21  1  0  0  0
 20 23  1  0  0  0
 22 24  1  0  0  0
 23 25  1  0  0  0
M  END
> <minimizedAffinity>
-9.27829

> <CNNscore>
0.5985824466

> <CNNaffinity>
6.2185053825

> <CNN_VS>
3.7222881317

> <CNNaffinity_variance>
0.1870008409

$$$$



 25 25  0  0  0  0  0  0  0  0999 V2000
  -37.2485   58.4566   65.1879 C   0  0  0  0  0  0  0  0  0  0  0  0
  -35.8151   58.0010   64.8765 C   0  0  0  0  0  0  0  0  0  0  0  0
  -35.6473   57.7611   63.3824 C   0  0  0  0  0  0  0  0  0  0  0  0
  -34.5449   58.6729   62.8425 C   0  0  0  0  0  0  0  0  0  0  0  0
  -33.2804   58.5286   63.6890 C   0  0  0  0  0  0  0  0  0  0  0  0
  -30.8611   58.7520   62.6057 C   0  0  0  0  0  0  0  0  0  0  0  0
  -32.1902   59.3921   63.0519 C   0  0  0  0  0  0  0  0  0  0  0  0
  -30.5292   57.2786   62.8878 C   0  0  0  0  0  0  0  0  0  0  0  0
  -30.5357   56.5457   61.5383 C   0  0  0  0  0  0  0  0  0  0  0  0
  -29.3036   55.7618   61.0262 C   0  0  0  0  0  0  0  0  0  0  0  0
  -28.0124   55.6431   61.8594 C   0  0  0  0  0  0  0  0  0  0  0  0
  -28.2955   54.6386   64.1700 C   0  0  0  0  0  0  0  0  0  0  0  0
  -28.1113   54.3489   62.6784 C   0  0  0  0  0  0  0  0  0  0  0  0
  -37.5138   59.9404   64.8236 C   0  0  0  0  0  0  0  0  0  0  0  0
  -37.3188   60.9044   66.0178 C   0  0  0  0  0  0  0  0  0  0  0  0
  -34.3001   62.4911   64.5599 C   0  0  0  0  0  0  0  0  0  0  0  0
  -33.8373   63.2774   65.6233 C   0  0  0  0  0  0  0  0  0  0  0  0
  -35.4518   61.7088   64.7074 C   0  0  0  0  0  0  0  0  0  0  0  0
  -34.5470   63.2667   66.8239 C   0  0  0  0  0  0  0  0  0  0  0  0
  -35.6973   62.4916   66.9614 C   0  0  0  0  0  0  0  0  0  0  0  0
  -36.1860   61.7210   65.8987 C   0  0  0  0  0  0  0  0  0  0  0  0
  -34.1641   63.9968   67.9000 O   0  0  0  0  0  0  0  0  0  0  0  0
  -36.3634   62.5186   68.1519 O   0  0  0  0  0  0  0  0  0  0  0  0
  -33.3970   64.5328   67.8536 H   0  0  0  0  0  0  0  0  0  0  0  0
  -36.0344   63.0349   68.8612 H   0  0  0  0  0  0  0  0  0  0  0  0
 12 13  1  0  0  0
  9 10  2  0  0  0
  9  8  1  0  0  0
  6  7  2  0  0  0
  6  8  1  0  0  0
 10 11  1  0  0  0
  7  5  1  0  0  0
 16 17  2  0  0  0
 16 18  1  0  0  0
 17 19  1  0  0  0
 18 21  2  0  0  0
 13 11  1  0  0  0
  5  4  1  0  0  0
  4  3  1  0  0  0
  3  2  1  0  0  0
  2  1  1  0  0  0
  1 14  1  0  0  0
 14 15  1  0  0  0
 15 21  1  0  0  0
 19 20  2  0  0  0
 19 22  1  0  0  0
 20 21  1  0  0  0
 20 23  1  0  0  0
 22 24  1  0  0  0
 23 25  1  0  0  0
M  END
> <minimizedAffinity>
-7.61159

> <CNNscore>
0.5897045732

> <CNNaffinity>
6.0556826591

> <CNN_VS>
3.5710637569

> <CNNaffinity_variance>
0.4028946757

$$$$
