


 25 25  0  0  0  0  0  0  0  0999 V2000
  -44.2457   59.3319   65.6244 C   0  0  0  0  0  0  0  0  0  0  0  0
  -44.8167   58.1217   64.8705 C   0  0  0  0  0  0  0  0  0  0  0  0
  -46.3360   58.2021   64.8110 C   0  0  0  0  0  0  0  0  0  0  0  0
  -46.8031   59.4906   65.4888 C   0  0  0  0  0  0  0  0  0  0  0  0
  -48.0135   60.0643   64.7522 C   0  0  0  0  0  0  0  0  0  0  0  0
  -49.9900   58.3866   64.1567 C   0  0  0  0  0  0  0  0  0  0  0  0
  -49.2444   59.2639   65.1813 C   0  0  0  0  0  0  0  0  0  0  0  0
  -49.6156   58.3743   62.6666 C   0  0  0  0  0  0  0  0  0  0  0  0
  -50.8900   58.0309   61.8815 C   0  0  0  0  0  0  0  0  0  0  0  0
  -50.8498   57.1935   60.5808 C   0  0  0  0  0  0  0  0  0  0  0  0
  -49.5309   56.6266   60.0198 C   0  0  0  0  0  0  0  0  0  0  0  0
  -47.9937   56.8419   58.0151 C   0  0  0  0  0  0  0  0  0  0  0  0
  -49.3828   57.1440   58.5825 C   0  0  0  0  0  0  0  0  0  0  0  0
  -42.9453   59.8917   64.9916 C   0  0  0  0  0  0  0  0  0  0  0  0
  -41.8233   60.1412   66.0270 C   0  0  0  0  0  0  0  0  0  0  0  0
  -38.7120   58.8882   64.4442 C   0  0  0  0  0  0  0  0  0  0  0  0
  -37.9114   60.0378   64.4163 C   0  0  0  0  0  0  0  0  0  0  0  0
  -40.0029   58.9380   64.9836 C   0  0  0  0  0  0  0  0  0  0  0  0
  -38.4272   61.2269   64.9312 C   0  0  0  0  0  0  0  0  0  0  0  0
  -39.7162   61.2714   65.4596 C   0  0  0  0  0  0  0  0  0  0  0  0
  -40.5370   60.1364   65.4705 C   0  0  0  0  0  0  0  0  0  0  0  0
  -37.7164   62.3812   64.9437 O   0  0  0  0  0  0  0  0  0  0  0  0
  -40.1814   62.4587   65.9451 O   0  0  0  0  0  0  0  0  0  0  0  0
  -36.8453   62.3988   64.5989 H   0  0  0  0  0  0  0  0  0  0  0  0
  -39.6304   63.2164   65.9367 H   0  0  0  0  0  0  0  0  0  0  0  0
 12 13  1  0  0  0
  9 10  2  0  0  0
  9  8  1  0  0  0
  6  7  2  0  0  0
  6  8  1  0  0  0
 10 11  1  0  0  0
  7  5  1  0  0  0
 16 17  2  0  0  0
 16 18  1  0  0  0
 17 19  1  0  0  0
 18 21  2  0  0  0
 13 11  1  0  0  0
  5  4  1  0  0  0
  4  3  1  0  0  0
  3  2  1  0  0  0
  2  1  1  0  0  0
  1 14  1  0  0  0
 14 15  1  0  0  0
 15 21  1  0  0  0
 19 20  2  0  0  0
 19 22  1  0  0  0
 20 21  1  0  0  0
 20 23  1  0  0  0
 22 24  1  0  0  0
 23 25  1  0  0  0
M  END
> <minimizedAffinity>
-8.69427

> <CNNscore>
0.8942486644

> <CNNaffinity>
6.9687476158

> <CNN_VS>
6.2317934036

> <CNNaffinity_variance>
0.6620231271

$$$$



 25 25  0  0  0  0  0  0  0  0999 V2000
  -46.0716   58.1805   65.6851 C   0  0  0  0  0  0  0  0  0  0  0  0
  -47.1372   59.1812   66.1564 C   0  0  0  0  0  0  0  0  0  0  0  0
  -48.2843   59.2447   65.1574 C   0  0  0  0  0  0  0  0  0  0  0  0
  -48.3594   57.9267   64.3860 C   0  0  0  0  0  0  0  0  0  0  0  0
  -48.6425   58.1965   62.9083 C   0  0  0  0  0  0  0  0  0  0  0  0
  -50.6231   57.5233   61.2650 C   0  0  0  0  0  0  0  0  0  0  0  0
  -50.1313   57.9439   62.6639 C   0  0  0  0  0  0  0  0  0  0  0  0
  -49.6813   57.4624   60.0526 C   0  0  0  0  0  0  0  0  0  0  0  0
  -49.2057   56.0083   59.9203 C   0  0  0  0  0  0  0  0  0  0  0  0
  -47.9110   55.6363   59.1587 C   0  0  0  0  0  0  0  0  0  0  0  0
  -47.0070   56.7092   58.5205 C   0  0  0  0  0  0  0  0  0  0  0  0
  -47.7356   55.2254   56.5980 C   0  0  0  0  0  0  0  0  0  0  0  0
  -46.7290   56.2754   57.0748 C   0  0  0  0  0  0  0  0  0  0  0  0
  -44.8725   58.8530   64.9677 C   0  0  0  0  0  0  0  0  0  0  0  0
  -43.8056   59.3979   65.9465 C   0  0  0  0  0  0  0  0  0  0  0  0
  -41.7601   60.9142   63.2498 C   0  0  0  0  0  0  0  0  0  0  0  0
  -40.6378   61.3720   63.9527 C   0  0  0  0  0  0  0  0  0  0  0  0
  -42.7983   60.2598   63.9235 C   0  0  0  0  0  0  0  0  0  0  0  0
  -40.5795   61.1661   65.3309 C   0  0  0  0  0  0  0  0  0  0  0  0
  -41.6203   60.5208   65.9966 C   0  0  0  0  0  0  0  0  0  0  0  0
  -42.7598   60.0810   65.3110 C   0  0  0  0  0  0  0  0  0  0  0  0
  -39.5283   61.5760   66.0823 O   0  0  0  0  0  0  0  0  0  0  0  0
  -41.5232   60.3484   67.3467 O   0  0  0  0  0  0  0  0  0  0  0  0
  -38.8057   62.0142   65.6776 H   0  0  0  0  0  0  0  0  0  0  0  0
  -40.7599   60.6435   67.8030 H   0  0  0  0  0  0  0  0  0  0  0  0
 12 13  1  0  0  0
  9 10  2  0  0  0
  9  8  1  0  0  0
  6  7  2  0  0  0
  6  8  1  0  0  0
 10 11  1  0  0  0
  7  5  1  0  0  0
 16 17  2  0  0  0
 16 18  1  0  0  0
 17 19  1  0  0  0
 18 21  2  0  0  0
 13 11  1  0  0  0
  5  4  1  0  0  0
  4  3  1  0  0  0
  3  2  1  0  0  0
  2  1  1  0  0  0
  1 14  1  0  0  0
 14 15  1  0  0  0
 15 21  1  0  0  0
 19 20  2  0  0  0
 19 22  1  0  0  0
 20 21  1  0  0  0
 20 23  1  0  0  0
 22 24  1  0  0  0
 23 25  1  0  0  0
M  END
> <minimizedAffinity>
-8.31988

> <CNNscore>
0.8417410254

> <CNNaffinity>
7.0835218430

> <CNN_VS>
5.9624910355

> <CNNaffinity_variance>
0.6513592601

$$$$



 25 25  0  0  0  0  0  0  0  0999 V2000
  -42.7207   59.4555   65.1114 C   0  0  0  0  0  0  0  0  0  0  0  0
  -43.9856   58.8367   65.7245 C   0  0  0  0  0  0  0  0  0  0  0  0
  -45.2194   59.6220   65.3011 C   0  0  0  0  0  0  0  0  0  0  0  0
  -46.4737   58.9075   65.8054 C   0  0  0  0  0  0  0  0  0  0  0  0
  -47.1967   58.2285   64.6423 C   0  0  0  0  0  0  0  0  0  0  0  0
  -49.7538   58.0946   63.9217 C   0  0  0  0  0  0  0  0  0  0  0  0
  -48.6733   58.1001   65.0207 C   0  0  0  0  0  0  0  0  0  0  0  0
  -49.4156   58.3381   62.4429 C   0  0  0  0  0  0  0  0  0  0  0  0
  -50.6012   57.8208   61.6152 C   0  0  0  0  0  0  0  0  0  0  0  0
  -50.4253   57.3028   60.1676 C   0  0  0  0  0  0  0  0  0  0  0  0
  -49.0432   57.2439   59.4880 C   0  0  0  0  0  0  0  0  0  0  0  0
  -47.3272   55.5612   58.6805 C   0  0  0  0  0  0  0  0  0  0  0  0
  -48.5541   55.7912   59.5662 C   0  0  0  0  0  0  0  0  0  0  0  0
  -41.4339   58.6424   65.4077 C   0  0  0  0  0  0  0  0  0  0  0  0
  -40.1382   59.4704   65.2372 C   0  0  0  0  0  0  0  0  0  0  0  0
  -38.0207   57.4683   62.9430 C   0  0  0  0  0  0  0  0  0  0  0  0
  -37.7962   58.3654   61.8903 C   0  0  0  0  0  0  0  0  0  0  0  0
  -38.7951   57.8503   64.0450 C   0  0  0  0  0  0  0  0  0  0  0  0
  -38.3609   59.6386   61.9621 C   0  0  0  0  0  0  0  0  0  0  0  0
  -39.1374   60.0098   63.0586 C   0  0  0  0  0  0  0  0  0  0  0  0
  -39.3916   59.1147   64.1057 C   0  0  0  0  0  0  0  0  0  0  0  0
  -38.1892   60.5650   60.9874 O   0  0  0  0  0  0  0  0  0  0  0  0
  -39.6761   61.2632   63.0819 O   0  0  0  0  0  0  0  0  0  0  0  0
  -37.6749   60.3599   60.2315 H   0  0  0  0  0  0  0  0  0  0  0  0
  -39.5045   61.8600   62.3802 H   0  0  0  0  0  0  0  0  0  0  0  0
 12 13  1  0  0  0
  9 10  2  0  0  0
  9  8  1  0  0  0
  6  7  2  0  0  0
  6  8  1  0  0  0
 10 11  1  0  0  0
  7  5  1  0  0  0
 16 17  2  0  0  0
 16 18  1  0  0  0
 17 19  1  0  0  0
 18 21  2  0  0  0
 13 11  1  0  0  0
  5  4  1  0  0  0
  4  3  1  0  0  0
  3  2  1  0  0  0
  2  1  1  0  0  0
  1 14  1  0  0  0
 14 15  1  0  0  0
 15 21  1  0  0  0
 19 20  2  0  0  0
 19 22  1  0  0  0
 20 21  1  0  0  0
 20 23  1  0  0  0
 22 24  1  0  0  0
 23 25  1  0  0  0
M  END
> <minimizedAffinity>
-8.95939

> <CNNscore>
0.8304197192

> <CNNaffinity>
6.9174361229

> <CNN_VS>
5.7443752289

> <CNNaffinity_variance>
0.6714428663

$$$$



 25 25  0  0  0  0  0  0  0  0999 V2000
  -44.8324   59.4413   66.1851 C   0  0  0  0  0  0  0  0  0  0  0  0
  -46.0460   59.5635   65.2516 C   0  0  0  0  0  0  0  0  0  0  0  0
  -47.0035   58.4002   65.4711 C   0  0  0  0  0  0  0  0  0  0  0  0
  -47.8790   58.2223   64.2302 C   0  0  0  0  0  0  0  0  0  0  0  0
  -49.3311   57.9780   64.6406 C   0  0  0  0  0  0  0  0  0  0  0  0
  -50.8797   60.1161   64.3144 C   0  0  0  0  0  0  0  0  0  0  0  0
  -49.8950   59.2971   65.1717 C   0  0  0  0  0  0  0  0  0  0  0  0
  -51.2333   59.7187   62.8730 C   0  0  0  0  0  0  0  0  0  0  0  0
  -50.1405   60.2968   61.9620 C   0  0  0  0  0  0  0  0  0  0  0  0
  -49.5760   59.5065   60.7572 C   0  0  0  0  0  0  0  0  0  0  0  0
  -50.1053   58.1081   60.3829 C   0  0  0  0  0  0  0  0  0  0  0  0
  -49.0544   55.8345   59.9898 C   0  0  0  0  0  0  0  0  0  0  0  0
  -49.0789   57.0803   60.8787 C   0  0  0  0  0  0  0  0  0  0  0  0
  -43.4764   59.4450   65.4327 C   0  0  0  0  0  0  0  0  0  0  0  0
  -42.3252   60.0692   66.2564 C   0  0  0  0  0  0  0  0  0  0  0  0
  -39.3746   58.6554   64.5098 C   0  0  0  0  0  0  0  0  0  0  0  0
  -38.5336   59.7709   64.4011 C   0  0  0  0  0  0  0  0  0  0  0  0
  -40.6248   58.7697   65.1295 C   0  0  0  0  0  0  0  0  0  0  0  0
  -38.9682   60.9914   64.9175 C   0  0  0  0  0  0  0  0  0  0  0  0
  -40.2174   61.1000   65.5263 C   0  0  0  0  0  0  0  0  0  0  0  0
  -41.0791   59.9996   65.6188 C   0  0  0  0  0  0  0  0  0  0  0  0
  -38.2139   62.1160   64.8547 O   0  0  0  0  0  0  0  0  0  0  0  0
  -40.6036   62.3160   66.0100 O   0  0  0  0  0  0  0  0  0  0  0  0
  -37.3671   62.0905   64.4544 H   0  0  0  0  0  0  0  0  0  0  0  0
  -40.0252   63.0505   65.9469 H   0  0  0  0  0  0  0  0  0  0  0  0
 12 13  1  0  0  0
  9 10  2  0  0  0
  9  8  1  0  0  0
  6  7  2  0  0  0
  6  8  1  0  0  0
 10 11  1  0  0  0
  7  5  1  0  0  0
 16 17  2  0  0  0
 16 18  1  0  0  0
 17 19  1  0  0  0
 18 21  2  0  0  0
 13 11  1  0  0  0
  5  4  1  0  0  0
  4  3  1  0  0  0
  3  2  1  0  0  0
  2  1  1  0  0  0
  1 14  1  0  0  0
 14 15  1  0  0  0
 15 21  1  0  0  0
 19 20  2  0  0  0
 19 22  1  0  0  0
 20 21  1  0  0  0
 20 23  1  0  0  0
 22 24  1  0  0  0
 23 25  1  0  0  0
M  END
> <minimizedAffinity>
-8.76682

> <CNNscore>
0.7153002620

> <CNNaffinity>
6.5217962265

> <CNN_VS>
4.6650424004

> <CNNaffinity_variance>
0.1677571237

$$$$



 25 25  0  0  0  0  0  0  0  0999 V2000
  -43.5953   59.9258   65.1878 C   0  0  0  0  0  0  0  0  0  0  0  0
  -43.6355   58.3914   65.2419 C   0  0  0  0  0  0  0  0  0  0  0  0
  -44.8186   57.8630   64.4424 C   0  0  0  0  0  0  0  0  0  0  0  0
  -46.0998   58.0322   65.2598 C   0  0  0  0  0  0  0  0  0  0  0  0
  -47.2997   58.2046   64.3288 C   0  0  0  0  0  0  0  0  0  0  0  0
  -49.7910   58.3264   65.2533 C   0  0  0  0  0  0  0  0  0  0  0  0
  -48.5024   57.5245   64.9853 C   0  0  0  0  0  0  0  0  0  0  0  0
  -49.8804   59.8384   64.9950 C   0  0  0  0  0  0  0  0  0  0  0  0
  -51.0859   60.0704   64.0724 C   0  0  0  0  0  0  0  0  0  0  0  0
  -50.9419   60.1143   62.5322 C   0  0  0  0  0  0  0  0  0  0  0  0
  -49.5849   59.8916   61.8364 C   0  0  0  0  0  0  0  0  0  0  0  0
  -50.6578   57.6204   61.4913 C   0  0  0  0  0  0  0  0  0  0  0  0
  -49.7439   58.6922   60.8921 C   0  0  0  0  0  0  0  0  0  0  0  0
  -42.5932   60.4772   64.1406 C   0  0  0  0  0  0  0  0  0  0  0  0
  -41.3404   61.1230   64.7785 C   0  0  0  0  0  0  0  0  0  0  0  0
  -39.2589   60.6553   61.7446 C   0  0  0  0  0  0  0  0  0  0  0  0
  -37.9934   61.0595   62.1898 C   0  0  0  0  0  0  0  0  0  0  0  0
  -40.3557   60.6789   62.6144 C   0  0  0  0  0  0  0  0  0  0  0  0
  -37.8516   61.4869   63.5099 C   0  0  0  0  0  0  0  0  0  0  0  0
  -38.9494   61.5154   64.3683 C   0  0  0  0  0  0  0  0  0  0  0  0
  -40.2253   61.1389   63.9296 C   0  0  0  0  0  0  0  0  0  0  0  0
  -36.6618   61.8912   64.0182 O   0  0  0  0  0  0  0  0  0  0  0  0
  -38.7648   61.9485   65.6490 O   0  0  0  0  0  0  0  0  0  0  0  0
  -35.8963   61.8889   63.4778 H   0  0  0  0  0  0  0  0  0  0  0  0
  -37.9103   62.1997   65.9400 H   0  0  0  0  0  0  0  0  0  0  0  0
 12 13  1  0  0  0
  9 10  2  0  0  0
  9  8  1  0  0  0
  6  7  2  0  0  0
  6  8  1  0  0  0
 10 11  1  0  0  0
  7  5  1  0  0  0
 16 17  2  0  0  0
 16 18  1  0  0  0
 17 19  1  0  0  0
 18 21  2  0  0  0
 13 11  1  0  0  0
  5  4  1  0  0  0
  4  3  1  0  0  0
  3  2  1  0  0  0
  2  1  1  0  0  0
  1 14  1  0  0  0
 14 15  1  0  0  0
 15 21  1  0  0  0
 19 20  2  0  0  0
 19 22  1  0  0  0
 20 21  1  0  0  0
 20 23  1  0  0  0
 22 24  1  0  0  0
 23 25  1  0  0  0
M  END
> <minimizedAffinity>
-8.50300

> <CNNscore>
0.6460369825

> <CNNaffinity>
6.5490884781

> <CNN_VS>
4.2309532166

> <CNNaffinity_variance>
0.2733150125

$$$$



 25 25  0  0  0  0  0  0  0  0999 V2000
  -42.0314   59.6941   66.5144 C   0  0  0  0  0  0  0  0  0  0  0  0
  -43.5556   59.7001   66.3252 C   0  0  0  0  0  0  0  0  0  0  0  0
  -43.9267   59.0763   64.9868 C   0  0  0  0  0  0  0  0  0  0  0  0
  -44.8916   57.9131   65.2189 C   0  0  0  0  0  0  0  0  0  0  0  0
  -46.3209   58.3398   64.8852 C   0  0  0  0  0  0  0  0  0  0  0  0
  -48.0851   60.0482   65.9075 C   0  0  0  0  0  0  0  0  0  0  0  0
  -46.8678   59.1192   66.0824 C   0  0  0  0  0  0  0  0  0  0  0  0
  -48.7110   60.3237   64.5316 C   0  0  0  0  0  0  0  0  0  0  0  0
  -50.2291   60.1463   64.6800 C   0  0  0  0  0  0  0  0  0  0  0  0
  -51.1428   59.8597   63.4644 C   0  0  0  0  0  0  0  0  0  0  0  0
  -50.5747   59.7007   62.0405 C   0  0  0  0  0  0  0  0  0  0  0  0
  -49.1896   57.6071   61.6842 C   0  0  0  0  0  0  0  0  0  0  0  0
  -50.5989   58.2042   61.7005 C   0  0  0  0  0  0  0  0  0  0  0  0
  -41.2921   58.7690   65.5132 C   0  0  0  0  0  0  0  0  0  0  0  0
  -39.9185   59.3261   65.0703 C   0  0  0  0  0  0  0  0  0  0  0  0
  -41.0647   61.1559   62.0547 C   0  0  0  0  0  0  0  0  0  0  0  0
  -40.0363   60.8917   61.1405 C   0  0  0  0  0  0  0  0  0  0  0  0
  -41.0127   60.6277   63.3502 C   0  0  0  0  0  0  0  0  0  0  0  0
  -38.9638   60.0986   61.5482 C   0  0  0  0  0  0  0  0  0  0  0  0
  -38.9145   59.5824   62.8420 C   0  0  0  0  0  0  0  0  0  0  0  0
  -39.9225   59.8596   63.7743 C   0  0  0  0  0  0  0  0  0  0  0  0
  -37.9313   59.7946   60.7241 O   0  0  0  0  0  0  0  0  0  0  0  0
  -37.8419   58.8181   63.1987 O   0  0  0  0  0  0  0  0  0  0  0  0
  -37.9219   60.1197   59.8453 H   0  0  0  0  0  0  0  0  0  0  0  0
  -37.1689   58.6342   62.5732 H   0  0  0  0  0  0  0  0  0  0  0  0
 12 13  1  0  0  0
  9 10  2  0  0  0
  9  8  1  0  0  0
  6  7  2  0  0  0
  6  8  1  0  0  0
 10 11  1  0  0  0
  7  5  1  0  0  0
 16 17  2  0  0  0
 16 18  1  0  0  0
 17 19  1  0  0  0
 18 21  2  0  0  0
 13 11  1  0  0  0
  5  4  1  0  0  0
  4  3  1  0  0  0
  3  2  1  0  0  0
  2  1  1  0  0  0
  1 14  1  0  0  0
 14 15  1  0  0  0
 15 21  1  0  0  0
 19 20  2  0  0  0
 19 22  1  0  0  0
 20 21  1  0  0  0
 20 23  1  0  0  0
 22 24  1  0  0  0
 23 25  1  0  0  0
M  END
> <minimizedAffinity>
-8.27440

> <CNNscore>
0.6123856306

> <CNNaffinity>
6.5024504662

> <CNN_VS>
3.9820072651

> <CNNaffinity_variance>
0.3431888819

$$$$



 25 25  0  0  0  0  0  0  0  0999 V2000
  -40.8638   58.8639   65.2980 C   0  0  0  0  0  0  0  0  0  0  0  0
  -41.9959   59.7018   65.9107 C   0  0  0  0  0  0  0  0  0  0  0  0
  -43.1356   59.8635   64.9141 C   0  0  0  0  0  0  0  0  0  0  0  0
  -44.4370   59.3693   65.5465 C   0  0  0  0  0  0  0  0  0  0  0  0
  -44.9172   58.1012   64.8409 C   0  0  0  0  0  0  0  0  0  0  0  0
  -47.4456   57.4379   65.3341 C   0  0  0  0  0  0  0  0  0  0  0  0
  -45.9587   57.4320   65.7395 C   0  0  0  0  0  0  0  0  0  0  0  0
  -47.9535   58.2054   64.1038 C   0  0  0  0  0  0  0  0  0  0  0  0
  -48.0561   59.6849   64.5026 C   0  0  0  0  0  0  0  0  0  0  0  0
  -48.7913   60.7218   63.6201 C   0  0  0  0  0  0  0  0  0  0  0  0
  -49.4929   60.3200   62.3079 C   0  0  0  0  0  0  0  0  0  0  0  0
  -51.3042   60.3560   64.0817 C   0  0  0  0  0  0  0  0  0  0  0  0
  -50.9352   59.9295   62.6588 C   0  0  0  0  0  0  0  0  0  0  0  0
  -39.7658   59.7208   64.6162 C   0  0  0  0  0  0  0  0  0  0  0  0
  -38.8665   60.4727   65.6257 C   0  0  0  0  0  0  0  0  0  0  0  0
  -35.7048   58.6746   64.9005 C   0  0  0  0  0  0  0  0  0  0  0  0
  -34.7415   59.6637   65.1387 C   0  0  0  0  0  0  0  0  0  0  0  0
  -37.0656   58.9571   65.0695 C   0  0  0  0  0  0  0  0  0  0  0  0
  -35.1655   60.9298   65.5418 C   0  0  0  0  0  0  0  0  0  0  0  0
  -36.5224   61.2066   65.7005 C   0  0  0  0  0  0  0  0  0  0  0  0
  -37.4977   60.2352   65.4409 C   0  0  0  0  0  0  0  0  0  0  0  0
  -34.2974   61.9398   65.7946 O   0  0  0  0  0  0  0  0  0  0  0  0
  -36.8909   62.4616   66.0889 O   0  0  0  0  0  0  0  0  0  0  0  0
  -33.3756   61.7997   65.7011 H   0  0  0  0  0  0  0  0  0  0  0  0
  -36.2365   63.1095   66.2619 H   0  0  0  0  0  0  0  0  0  0  0  0
 12 13  1  0  0  0
  9 10  2  0  0  0
  9  8  1  0  0  0
  6  7  2  0  0  0
  6  8  1  0  0  0
 10 11  1  0  0  0
  7  5  1  0  0  0
 16 17  2  0  0  0
 16 18  1  0  0  0
 17 19  1  0  0  0
 18 21  2  0  0  0
 13 11  1  0  0  0
  5  4  1  0  0  0
  4  3  1  0  0  0
  3  2  1  0  0  0
  2  1  1  0  0  0
  1 14  1  0  0  0
 14 15  1  0  0  0
 15 21  1  0  0  0
 19 20  2  0  0  0
 19 22  1  0  0  0
 20 21  1  0  0  0
 20 23  1  0  0  0
 22 24  1  0  0  0
 23 25  1  0  0  0
M  END
> <minimizedAffinity>
-7.92997

> <CNNscore>
0.5724688172

> <CNNaffinity>
6.2463679314

> <CNN_VS>
3.5758509636

> <CNNaffinity_variance>
0.3796822131

$$$$



 25 25  0  0  0  0  0  0  0  0999 V2000
  -40.9020   58.8522   65.2807 C   0  0  0  0  0  0  0  0  0  0  0  0
  -42.4297   58.7226   65.3722 C   0  0  0  0  0  0  0  0  0  0  0  0
  -42.8164   57.3298   65.8504 C   0  0  0  0  0  0  0  0  0  0  0  0
  -44.0808   56.8752   65.1205 C   0  0  0  0  0  0  0  0  0  0  0  0
  -45.0919   58.0197   65.0558 C   0  0  0  0  0  0  0  0  0  0  0  0
  -47.6706   57.5561   65.5157 C   0  0  0  0  0  0  0  0  0  0  0  0
  -46.2253   57.6980   66.0316 C   0  0  0  0  0  0  0  0  0  0  0  0
  -48.0487   57.8478   64.0553 C   0  0  0  0  0  0  0  0  0  0  0  0
  -49.5083   58.3250   64.0512 C   0  0  0  0  0  0  0  0  0  0  0  0
  -50.3574   58.3521   62.7577 C   0  0  0  0  0  0  0  0  0  0  0  0
  -49.7957   57.8671   61.4068 C   0  0  0  0  0  0  0  0  0  0  0  0
  -49.5630   60.3850   61.2218 C   0  0  0  0  0  0  0  0  0  0  0  0
  -49.7710   59.0743   60.4594 C   0  0  0  0  0  0  0  0  0  0  0  0
  -40.3495   60.1152   65.9910 C   0  0  0  0  0  0  0  0  0  0  0  0
  -40.1424   61.3111   65.0317 C   0  0  0  0  0  0  0  0  0  0  0  0
  -38.1196   59.8763   62.2740 C   0  0  0  0  0  0  0  0  0  0  0  0
  -38.8778   60.2143   61.1451 C   0  0  0  0  0  0  0  0  0  0  0  0
  -38.5499   60.2495   63.5528 C   0  0  0  0  0  0  0  0  0  0  0  0
  -40.0656   60.9233   61.3227 C   0  0  0  0  0  0  0  0  0  0  0  0
  -40.4922   61.2849   62.5995 C   0  0  0  0  0  0  0  0  0  0  0  0
  -39.7578   60.9313   63.7387 C   0  0  0  0  0  0  0  0  0  0  0  0
  -40.8543   61.2903   60.2830 O   0  0  0  0  0  0  0  0  0  0  0  0
  -41.6648   61.9712   62.7253 O   0  0  0  0  0  0  0  0  0  0  0  0
  -40.6074   61.0689   59.4067 H   0  0  0  0  0  0  0  0  0  0  0  0
  -42.1541   62.2066   61.9617 H   0  0  0  0  0  0  0  0  0  0  0  0
 12 13  1  0  0  0
  9 10  2  0  0  0
  9  8  1  0  0  0
  6  7  2  0  0  0
  6  8  1  0  0  0
 10 11  1  0  0  0
  7  5  1  0  0  0
 16 17  2  0  0  0
 16 18  1  0  0  0
 17 19  1  0  0  0
 18 21  2  0  0  0
 13 11  1  0  0  0
  5  4  1  0  0  0
  4  3  1  0  0  0
  3  2  1  0  0  0
  2  1  1  0  0  0
  1 14  1  0  0  0
 14 15  1  0  0  0
 15 21  1  0  0  0
 19 20  2  0  0  0
 19 22  1  0  0  0
 20 21  1  0  0  0
 20 23  1  0  0  0
 22 24  1  0  0  0
 23 25  1  0  0  0
M  END
> <minimizedAffinity>
-8.38136

> <CNNscore>
0.5310449600

> <CNNaffinity>
6.4299407005

> <CNN_VS>
3.4145874977

> <CNNaffinity_variance>
0.5404127836

$$$$



 25 25  0  0  0  0  0  0  0  0999 V2000
  -39.1236   58.2297   64.3949 C   0  0  0  0  0  0  0  0  0  0  0  0
  -40.0103   59.3195   65.0155 C   0  0  0  0  0  0  0  0  0  0  0  0
  -41.4364   58.8127   65.1814 C   0  0  0  0  0  0  0  0  0  0  0  0
  -42.4090   59.8273   64.5794 C   0  0  0  0  0  0  0  0  0  0  0  0
  -43.7889   59.6784   65.2199 C   0  0  0  0  0  0  0  0  0  0  0  0
  -45.7736   57.9702   64.7517 C   0  0  0  0  0  0  0  0  0  0  0  0
  -44.2726   58.2504   64.9616 C   0  0  0  0  0  0  0  0  0  0  0  0
  -46.8390   59.0654   64.9132 C   0  0  0  0  0  0  0  0  0  0  0  0
  -48.1154   58.3843   65.4281 C   0  0  0  0  0  0  0  0  0  0  0  0
  -49.3113   58.0745   64.4961 C   0  0  0  0  0  0  0  0  0  0  0  0
  -49.2735   58.4004   62.9902 C   0  0  0  0  0  0  0  0  0  0  0  0
  -51.2262   59.9844   63.3164 C   0  0  0  0  0  0  0  0  0  0  0  0
  -50.7028   58.7599   62.5617 C   0  0  0  0  0  0  0  0  0  0  0  0
  -38.0896   58.7835   63.3805 C   0  0  0  0  0  0  0  0  0  0  0  0
  -37.9026   60.3162   63.4776 C   0  0  0  0  0  0  0  0  0  0  0  0
  -34.5058   60.3480   64.9662 C   0  0  0  0  0  0  0  0  0  0  0  0
  -34.6158   61.3582   65.9308 C   0  0  0  0  0  0  0  0  0  0  0  0
  -35.6036   60.0126   64.1647 C   0  0  0  0  0  0  0  0  0  0  0  0
  -35.8347   62.0213   66.0717 C   0  0  0  0  0  0  0  0  0  0  0  0
  -36.9214   61.6877   65.2650 C   0  0  0  0  0  0  0  0  0  0  0  0
  -36.8183   60.6980   64.2792 C   0  0  0  0  0  0  0  0  0  0  0  0
  -36.0236   63.0076   66.9823 O   0  0  0  0  0  0  0  0  0  0  0  0
  -38.0918   62.3687   65.4332 O   0  0  0  0  0  0  0  0  0  0  0  0
  -35.3211   63.2654   67.5463 H   0  0  0  0  0  0  0  0  0  0  0  0
  -38.1581   63.0303   66.0934 H   0  0  0  0  0  0  0  0  0  0  0  0
 12 13  1  0  0  0
  9 10  2  0  0  0
  9  8  1  0  0  0
  6  7  2  0  0  0
  6  8  1  0  0  0
 10 11  1  0  0  0
  7  5  1  0  0  0
 16 17  2  0  0  0
 16 18  1  0  0  0
 17 19  1  0  0  0
 18 21  2  0  0  0
 13 11  1  0  0  0
  5  4  1  0  0  0
  4  3  1  0  0  0
  3  2  1  0  0  0
  2  1  1  0  0  0
  1 14  1  0  0  0
 14 15  1  0  0  0
 15 21  1  0  0  0
 19 20  2  0  0  0
 19 22  1  0  0  0
 20 21  1  0  0  0
 20 23  1  0  0  0
 22 24  1  0  0  0
 23 25  1  0  0  0
M  END
> <minimizedAffinity>
-8.05917

> <CNNscore>
0.5207911730

> <CNNaffinity>
6.0440359116

> <CNN_VS>
3.1476805210

> <CNNaffinity_variance>
0.3946050107

$$$$
