


 37 36  0  0  0  0  0  0  0  0999 V2000
  -42.0781   57.5875   65.8698 O   0  0  0  0  0  0  0  0  0  0  0  0
  -42.7526   58.4274   65.3573 C   0  0  0  0  0  0  0  0  0  0  0  0
  -42.3296   59.6658   65.1038 O   0  0  0  0  0  0  0  0  0  0  0  0
  -41.0709   60.0734   65.6849 C   0  0  0  0  0  0  0  0  0  0  0  0
  -40.6026   61.2899   64.9198 C   0  0  0  0  0  0  0  0  0  0  0  0
  -40.4004   62.3738   65.8266 O   0  0  0  0  0  0  0  0  0  0  0  0
  -39.6911   62.1472   66.4483 H   0  0  0  0  0  0  0  0  0  0  0  0
  -39.3361   61.0943   64.1222 C   0  0  0  0  0  0  0  0  0  0  0  0
  -39.6231   60.2196   63.0125 O   0  0  0  0  0  0  0  0  0  0  0  0
  -38.8956   60.4539   61.6178 P   0  0  0  0  0  0  0  0  0  0  0  0
  -39.9420   60.8096   60.6382 O   0  0  0  0  0  0  0  0  0  0  0  0
  -37.7907   61.4008   61.8659 O   0  0  0  0  0  0  0  0  0  0  0  0
  -38.1539   62.2550   62.1474 H   0  0  0  0  0  0  0  0  0  0  0  0
  -38.2436   59.0811   61.1625 O   0  0  0  0  0  0  0  0  0  0  0  0
  -37.8697   58.0997   62.1579 C   0  0  0  0  0  0  0  0  0  0  0  0
  -36.5384   58.5564   62.7100 C   0  0  0  0  0  0  0  0  0  0  0  0
  -36.3184   58.3369   64.1936 N   0  0  0  0  0  0  0  0  0  0  0  0
  -35.4356   57.1556   64.4386 C   0  0  0  0  0  0  0  0  0  0  0  0
  -37.6331   58.0982   64.8643 C   0  0  0  0  0  0  0  0  0  0  0  0
  -35.6728   59.5485   64.7893 C   0  0  0  0  0  0  0  0  0  0  0  0
  -44.1642   58.2247   64.9130 C   0  0  0  0  0  0  0  0  0  0  0  0
  -45.0878   59.3461   65.3497 C   0  0  0  0  0  0  0  0  0  0  0  0
  -46.5073   58.8800   65.5912 C   0  0  0  0  0  0  0  0  0  0  0  0
  -47.2837   58.5606   64.3354 C   0  0  0  0  0  0  0  0  0  0  0  0
  -48.6120   57.8955   64.5916 C   0  0  0  0  0  0  0  0  0  0  0  0
  -49.4893   58.7012   65.5117 C   0  0  0  0  0  0  0  0  0  0  0  0
  -49.9686   60.0115   64.9608 C   0  0  0  0  0  0  0  0  0  0  0  0
  -51.0766   59.8715   64.0048 C   0  0  0  0  0  0  0  0  0  0  0  0
  -51.0436   60.0289   62.6999 C   0  0  0  0  0  0  0  0  0  0  0  0
  -49.8743   60.3668   61.8497 C   0  0  0  0  0  0  0  0  0  0  0  0
  -49.5601   59.3760   60.7474 C   0  0  0  0  0  0  0  0  0  0  0  0
  -49.6154   57.9480   61.2163 C   0  0  0  0  0  0  0  0  0  0  0  0
  -48.9860   56.9519   60.2763 C   0  0  0  0  0  0  0  0  0  0  0  0
  -49.5473   57.0403   58.8742 C   0  0  0  0  0  0  0  0  0  0  0  0
  -48.5449   56.8205   57.7757 C   0  0  0  0  0  0  0  0  0  0  0  0
  -47.1578   56.7082   58.2682 C   0  0  0  0  0  0  0  0  0  0  0  0
  -46.1559   57.0738   57.2689 C   0  0  0  0  0  0  0  0  0  0  0  0
 17 16  1  0  0  0
 17 18  1  0  0  0
 17 19  1  0  0  0
 17 20  1  0  0  0
  5  6  1  0  0  0
  5  8  1  0  0  0
  5  4  1  0  0  0
 10  9  1  0  0  0
 10 11  2  0  0  0
 10 14  1  0  0  0
 10 12  1  0  0  0
  8  9  1  0  0  0
 15 16  1  0  0  0
 15 14  1  0  0  0
  3  4  1  0  0  0
  3  2  1  0  0  0
  1  2  2  0  0  0
  2 21  1  0  0  0
 21 22  1  0  0  0
 22 23  1  0  0  0
 23 24  1  0  0  0
 24 25  1  0  0  0
 25 26  1  0  0  0
 26 27  1  0  0  0
 27 28  1  0  0  0
 28 29  2  0  0  0
 29 30  1  0  0  0
 30 31  1  0  0  0
 31 32  1  0  0  0
 32 33  1  0  0  0
 33 34  1  0  0  0
 34 35  1  0  0  0
 35 36  1  0  0  0
 36 37  1  0  0  0
  6  7  1  0  0  0
 12 13  1  0  0  0
M  CHG 1  11  -1
M  END
> <minimizedAffinity>
-8.13719

$$$$



 37 36  0  0  0  0  0  0  0  0999 V2000
  -42.3659   60.2443   66.6246 O   0  0  0  0  0  0  0  0  0  0  0  0
  -42.4154   59.9512   65.4694 C   0  0  0  0  0  0  0  0  0  0  0  0
  -41.4079   60.1297   64.6150 O   0  0  0  0  0  0  0  0  0  0  0  0
  -40.0696   59.8801   65.0995 C   0  0  0  0  0  0  0  0  0  0  0  0
  -39.3154   61.1870   65.0118 C   0  0  0  0  0  0  0  0  0  0  0  0
  -39.9480   62.1585   65.8449 O   0  0  0  0  0  0  0  0  0  0  0  0
  -39.8995   61.8718   66.7703 H   0  0  0  0  0  0  0  0  0  0  0  0
  -37.8571   61.1098   65.3941 C   0  0  0  0  0  0  0  0  0  0  0  0
  -37.3996   62.4356   65.7282 O   0  0  0  0  0  0  0  0  0  0  0  0
  -35.8402   62.7200   65.8580 P   0  0  0  0  0  0  0  0  0  0  0  0
  -35.6175   63.3101   67.1934 O   0  0  0  0  0  0  0  0  0  0  0  0
  -35.1461   61.4673   65.5002 O   0  0  0  0  0  0  0  0  0  0  0  0
  -35.3673   60.7790   66.1469 H   0  0  0  0  0  0  0  0  0  0  0  0
  -35.4422   63.8040   64.7700 O   0  0  0  0  0  0  0  0  0  0  0  0
  -34.5726   64.9012   65.1354 C   0  0  0  0  0  0  0  0  0  0  0  0
  -33.1617   64.3923   64.9452 C   0  0  0  0  0  0  0  0  0  0  0  0
  -32.2771   65.2029   64.0189 N   0  0  0  0  0  0  0  0  0  0  0  0
  -33.0744   65.8191   62.9146 C   0  0  0  0  0  0  0  0  0  0  0  0
  -31.2353   64.3147   63.4179 C   0  0  0  0  0  0  0  0  0  0  0  0
  -31.6081   66.2950   64.7931 C   0  0  0  0  0  0  0  0  0  0  0  0
  -43.6012   59.3340   64.8029 C   0  0  0  0  0  0  0  0  0  0  0  0
  -44.7351   59.0414   65.7673 C   0  0  0  0  0  0  0  0  0  0  0  0
  -45.0585   57.5663   65.8662 C   0  0  0  0  0  0  0  0  0  0  0  0
  -46.5282   57.2569   66.0275 C   0  0  0  0  0  0  0  0  0  0  0  0
  -47.4397   58.2775   65.3952 C   0  0  0  0  0  0  0  0  0  0  0  0
  -48.6740   57.6544   64.8005 C   0  0  0  0  0  0  0  0  0  0  0  0
  -49.9766   58.2339   65.2670 C   0  0  0  0  0  0  0  0  0  0  0  0
  -50.0725   59.6873   65.0681 C   0  0  0  0  0  0  0  0  0  0  0  0
  -50.6514   60.3317   64.0791 C   0  0  0  0  0  0  0  0  0  0  0  0
  -51.3786   59.7601   62.9177 C   0  0  0  0  0  0  0  0  0  0  0  0
  -50.5086   59.2817   61.7734 C   0  0  0  0  0  0  0  0  0  0  0  0
  -50.4827   57.7829   61.6500 C   0  0  0  0  0  0  0  0  0  0  0  0
  -50.6718   57.2634   60.2478 C   0  0  0  0  0  0  0  0  0  0  0  0
  -49.5848   57.7281   59.3038 C   0  0  0  0  0  0  0  0  0  0  0  0
  -48.7023   56.6357   58.7674 C   0  0  0  0  0  0  0  0  0  0  0  0
  -47.7677   57.1028   57.7246 C   0  0  0  0  0  0  0  0  0  0  0  0
  -47.7688   56.2651   56.5269 C   0  0  0  0  0  0  0  0  0  0  0  0
 17 16  1  0  0  0
 17 18  1  0  0  0
 17 19  1  0  0  0
 17 20  1  0  0  0
  5  6  1  0  0  0
  5  8  1  0  0  0
  5  4  1  0  0  0
 10  9  1  0  0  0
 10 11  2  0  0  0
 10 14  1  0  0  0
 10 12  1  0  0  0
  8  9  1  0  0  0
 15 16  1  0  0  0
 15 14  1  0  0  0
  3  4  1  0  0  0
  3  2  1  0  0  0
  1  2  2  0  0  0
  2 21  1  0  0  0
 21 22  1  0  0  0
 22 23  1  0  0  0
 23 24  1  0  0  0
 24 25  1  0  0  0
 25 26  1  0  0  0
 26 27  1  0  0  0
 27 28  1  0  0  0
 28 29  2  0  0  0
 29 30  1  0  0  0
 30 31  1  0  0  0
 31 32  1  0  0  0
 32 33  1  0  0  0
 33 34  1  0  0  0
 34 35  1  0  0  0
 35 36  1  0  0  0
 36 37  1  0  0  0
  6  7  1  0  0  0
 12 13  1  0  0  0
M  CHG 1  11  -1
M  END
> <minimizedAffinity>
-8.04989

$$$$



 37 36  0  0  0  0  0  0  0  0999 V2000
  -39.7633   58.1359   64.6008 O   0  0  0  0  0  0  0  0  0  0  0  0
  -40.1624   59.1224   65.1398 C   0  0  0  0  0  0  0  0  0  0  0  0
  -39.3718   60.1114   65.5566 O   0  0  0  0  0  0  0  0  0  0  0  0
  -38.0069   60.1201   65.0823 C   0  0  0  0  0  0  0  0  0  0  0  0
  -37.6223   61.5655   64.8647 C   0  0  0  0  0  0  0  0  0  0  0  0
  -38.3988   62.3994   65.7248 O   0  0  0  0  0  0  0  0  0  0  0  0
  -38.1905   62.1931   66.6494 H   0  0  0  0  0  0  0  0  0  0  0  0
  -36.1629   61.8789   65.0889 C   0  0  0  0  0  0  0  0  0  0  0  0
  -35.9227   61.9549   66.5085 O   0  0  0  0  0  0  0  0  0  0  0  0
  -34.9880   63.1040   67.0876 P   0  0  0  0  0  0  0  0  0  0  0  0
  -35.8108   63.9039   68.0172 O   0  0  0  0  0  0  0  0  0  0  0  0
  -33.7658   62.4473   67.5916 O   0  0  0  0  0  0  0  0  0  0  0  0
  -33.9943   61.8629   68.3313 H   0  0  0  0  0  0  0  0  0  0  0  0
  -34.5540   64.0427   65.8845 O   0  0  0  0  0  0  0  0  0  0  0  0
  -33.3193   64.7926   65.9692 C   0  0  0  0  0  0  0  0  0  0  0  0
  -32.3817   64.1609   64.9655 C   0  0  0  0  0  0  0  0  0  0  0  0
  -31.3224   65.0701   64.3748 N   0  0  0  0  0  0  0  0  0  0  0  0
  -29.9642   64.4541   64.4791 C   0  0  0  0  0  0  0  0  0  0  0  0
  -31.3142   66.3720   65.1099 C   0  0  0  0  0  0  0  0  0  0  0  0
  -31.6249   65.3202   62.9307 C   0  0  0  0  0  0  0  0  0  0  0  0
  -41.6007   59.4091   65.4231 C   0  0  0  0  0  0  0  0  0  0  0  0
  -42.3722   58.1798   65.8650 C   0  0  0  0  0  0  0  0  0  0  0  0
  -43.7516   58.0967   65.2480 C   0  0  0  0  0  0  0  0  0  0  0  0
  -44.6260   59.3014   65.5047 C   0  0  0  0  0  0  0  0  0  0  0  0
  -45.9549   58.9682   66.1333 C   0  0  0  0  0  0  0  0  0  0  0  0
  -46.5984   57.7594   65.5087 C   0  0  0  0  0  0  0  0  0  0  0  0
  -47.6374   58.0492   64.4663 C   0  0  0  0  0  0  0  0  0  0  0  0
  -48.9912   57.6346   64.8618 C   0  0  0  0  0  0  0  0  0  0  0  0
  -50.0199   58.4010   65.1502 C   0  0  0  0  0  0  0  0  0  0  0  0
  -50.0885   59.8840   65.1294 C   0  0  0  0  0  0  0  0  0  0  0  0
  -51.1818   60.4752   64.2631 C   0  0  0  0  0  0  0  0  0  0  0  0
  -51.3538   59.7404   62.9621 C   0  0  0  0  0  0  0  0  0  0  0  0
  -50.3393   60.0889   61.9033 C   0  0  0  0  0  0  0  0  0  0  0  0
  -49.6624   58.8673   61.3219 C   0  0  0  0  0  0  0  0  0  0  0  0
  -50.5926   57.7508   60.9369 C   0  0  0  0  0  0  0  0  0  0  0  0
  -49.9226   56.6667   60.1919 C   0  0  0  0  0  0  0  0  0  0  0  0
  -49.2118   57.1329   59.0029 C   0  0  0  0  0  0  0  0  0  0  0  0
 17 16  1  0  0  0
 17 18  1  0  0  0
 17 19  1  0  0  0
 17 20  1  0  0  0
  5  6  1  0  0  0
  5  8  1  0  0  0
  5  4  1  0  0  0
 10  9  1  0  0  0
 10 11  2  0  0  0
 10 14  1  0  0  0
 10 12  1  0  0  0
  8  9  1  0  0  0
 15 16  1  0  0  0
 15 14  1  0  0  0
  3  4  1  0  0  0
  3  2  1  0  0  0
  1  2  2  0  0  0
  2 21  1  0  0  0
 21 22  1  0  0  0
 22 23  1  0  0  0
 23 24  1  0  0  0
 24 25  1  0  0  0
 25 26  1  0  0  0
 26 27  1  0  0  0
 27 28  1  0  0  0
 28 29  2  0  0  0
 29 30  1  0  0  0
 30 31  1  0  0  0
 31 32  1  0  0  0
 32 33  1  0  0  0
 33 34  1  0  0  0
 34 35  1  0  0  0
 35 36  1  0  0  0
 36 37  1  0  0  0
  6  7  1  0  0  0
 12 13  1  0  0  0
M  CHG 1  11  -1
M  END
> <minimizedAffinity>
-8.02063

$$$$



 37 36  0  0  0  0  0  0  0  0999 V2000
  -42.0940   60.9615   63.6557 O   0  0  0  0  0  0  0  0  0  0  0  0
  -41.9460   60.4668   64.7310 C   0  0  0  0  0  0  0  0  0  0  0  0
  -40.8345   60.5883   65.4567 O   0  0  0  0  0  0  0  0  0  0  0  0
  -39.6011   60.1123   64.8735 C   0  0  0  0  0  0  0  0  0  0  0  0
  -38.5452   61.1562   65.1559 C   0  0  0  0  0  0  0  0  0  0  0  0
  -39.1525   62.2941   65.7677 O   0  0  0  0  0  0  0  0  0  0  0  0
  -39.5266   62.0389   66.6255 H   0  0  0  0  0  0  0  0  0  0  0  0
  -37.4085   60.6935   66.0348 C   0  0  0  0  0  0  0  0  0  0  0  0
  -36.8050   61.8490   66.6507 O   0  0  0  0  0  0  0  0  0  0  0  0
  -35.3943   62.3696   66.1326 P   0  0  0  0  0  0  0  0  0  0  0  0
  -35.4893   63.8393   66.0222 O   0  0  0  0  0  0  0  0  0  0  0  0
  -34.3700   61.7794   67.0166 O   0  0  0  0  0  0  0  0  0  0  0  0
  -34.4874   62.1173   67.9182 H   0  0  0  0  0  0  0  0  0  0  0  0
  -35.1534   61.7829   64.6784 O   0  0  0  0  0  0  0  0  0  0  0  0
  -34.1351   60.7760   64.4709 C   0  0  0  0  0  0  0  0  0  0  0  0
  -34.8297   59.6192   63.7890 C   0  0  0  0  0  0  0  0  0  0  0  0
  -34.2671   58.2403   64.0715 N   0  0  0  0  0  0  0  0  0  0  0  0
  -33.2702   58.2826   65.1847 C   0  0  0  0  0  0  0  0  0  0  0  0
  -33.5919   57.7148   62.8453 C   0  0  0  0  0  0  0  0  0  0  0  0
  -35.3778   57.3152   64.4586 C   0  0  0  0  0  0  0  0  0  0  0  0
  -42.9773   59.6466   65.4345 C   0  0  0  0  0  0  0  0  0  0  0  0
  -42.3980   58.4116   66.0983 C   0  0  0  0  0  0  0  0  0  0  0  0
  -43.1419   57.1444   65.7363 C   0  0  0  0  0  0  0  0  0  0  0  0
  -44.5205   57.3700   65.1616 C   0  0  0  0  0  0  0  0  0  0  0  0
  -45.6387   57.1152   66.1398 C   0  0  0  0  0  0  0  0  0  0  0  0
  -46.7315   58.1458   66.0436 C   0  0  0  0  0  0  0  0  0  0  0  0
  -47.3592   58.2943   64.6893 C   0  0  0  0  0  0  0  0  0  0  0  0
  -48.6729   57.6434   64.5813 C   0  0  0  0  0  0  0  0  0  0  0  0
  -49.8587   58.1788   64.7703 C   0  0  0  0  0  0  0  0  0  0  0  0
  -50.1809   59.5854   65.1197 C   0  0  0  0  0  0  0  0  0  0  0  0
  -51.1842   60.2700   64.2141 C   0  0  0  0  0  0  0  0  0  0  0  0
  -51.1145   59.7800   62.7939 C   0  0  0  0  0  0  0  0  0  0  0  0
  -49.9072   60.2509   62.0241 C   0  0  0  0  0  0  0  0  0  0  0  0
  -49.6912   59.4701   60.7465 C   0  0  0  0  0  0  0  0  0  0  0  0
  -49.5235   57.9876   60.9309 C   0  0  0  0  0  0  0  0  0  0  0  0
  -49.2913   57.2667   59.6638 C   0  0  0  0  0  0  0  0  0  0  0  0
  -48.9326   55.8624   59.8526 C   0  0  0  0  0  0  0  0  0  0  0  0
 17 16  1  0  0  0
 17 18  1  0  0  0
 17 19  1  0  0  0
 17 20  1  0  0  0
  5  6  1  0  0  0
  5  8  1  0  0  0
  5  4  1  0  0  0
 10  9  1  0  0  0
 10 11  2  0  0  0
 10 14  1  0  0  0
 10 12  1  0  0  0
  8  9  1  0  0  0
 15 16  1  0  0  0
 15 14  1  0  0  0
  3  4  1  0  0  0
  3  2  1  0  0  0
  1  2  2  0  0  0
  2 21  1  0  0  0
 21 22  1  0  0  0
 22 23  1  0  0  0
 23 24  1  0  0  0
 24 25  1  0  0  0
 25 26  1  0  0  0
 26 27  1  0  0  0
 27 28  1  0  0  0
 28 29  2  0  0  0
 29 30  1  0  0  0
 30 31  1  0  0  0
 31 32  1  0  0  0
 32 33  1  0  0  0
 33 34  1  0  0  0
 34 35  1  0  0  0
 35 36  1  0  0  0
 36 37  1  0  0  0
  6  7  1  0  0  0
 12 13  1  0  0  0
M  CHG 1  11  -1
M  END
> <minimizedAffinity>
-7.99153

$$$$



 37 36  0  0  0  0  0  0  0  0999 V2000
  -42.1617   61.5665   63.7127 O   0  0  0  0  0  0  0  0  0  0  0  0
  -41.6905   60.5944   64.2188 C   0  0  0  0  0  0  0  0  0  0  0  0
  -40.3872   60.3144   64.2157 O   0  0  0  0  0  0  0  0  0  0  0  0
  -39.9634   59.1017   64.8772 C   0  0  0  0  0  0  0  0  0  0  0  0
  -38.7792   58.5663   64.1056 C   0  0  0  0  0  0  0  0  0  0  0  0
  -38.7865   59.1094   62.7853 O   0  0  0  0  0  0  0  0  0  0  0  0
  -38.6755   60.0719   62.8310 H   0  0  0  0  0  0  0  0  0  0  0  0
  -37.4324   58.8456   64.7275 C   0  0  0  0  0  0  0  0  0  0  0  0
  -37.5984   59.8477   65.7507 O   0  0  0  0  0  0  0  0  0  0  0  0
  -37.0902   61.3316   65.4881 P   0  0  0  0  0  0  0  0  0  0  0  0
  -36.2157   61.2855   64.2988 O   0  0  0  0  0  0  0  0  0  0  0  0
  -38.2866   62.1960   65.4682 O   0  0  0  0  0  0  0  0  0  0  0  0
  -38.8514   61.9491   64.7192 H   0  0  0  0  0  0  0  0  0  0  0  0
  -36.2083   61.7799   66.7284 O   0  0  0  0  0  0  0  0  0  0  0  0
  -34.7820   61.9620   66.5659 C   0  0  0  0  0  0  0  0  0  0  0  0
  -34.5396   63.4502   66.6759 C   0  0  0  0  0  0  0  0  0  0  0  0
  -33.7883   64.0927   65.5267 N   0  0  0  0  0  0  0  0  0  0  0  0
  -32.6450   64.9174   66.0242 C   0  0  0  0  0  0  0  0  0  0  0  0
  -34.7151   64.9767   64.7553 C   0  0  0  0  0  0  0  0  0  0  0  0
  -33.2525   63.0287   64.6210 C   0  0  0  0  0  0  0  0  0  0  0  0
  -42.4778   59.5490   64.9387 C   0  0  0  0  0  0  0  0  0  0  0  0
  -43.9517   59.8908   65.0489 C   0  0  0  0  0  0  0  0  0  0  0  0
  -44.8152   58.6851   65.3508 C   0  0  0  0  0  0  0  0  0  0  0  0
  -46.2678   59.0053   65.6137 C   0  0  0  0  0  0  0  0  0  0  0  0
  -47.2036   57.8524   65.3540 C   0  0  0  0  0  0  0  0  0  0  0  0
  -48.2947   58.2070   64.3796 C   0  0  0  0  0  0  0  0  0  0  0  0
  -49.6942   58.0691   64.9017 C   0  0  0  0  0  0  0  0  0  0  0  0
  -50.3413   59.3589   65.1823 C   0  0  0  0  0  0  0  0  0  0  0  0
  -50.9611   60.1534   64.3377 C   0  0  0  0  0  0  0  0  0  0  0  0
  -51.1886   59.9441   62.8855 C   0  0  0  0  0  0  0  0  0  0  0  0
  -50.1054   60.4787   61.9711 C   0  0  0  0  0  0  0  0  0  0  0  0
  -49.6701   59.4764   60.9377 C   0  0  0  0  0  0  0  0  0  0  0  0
  -50.2950   58.1123   61.0814 C   0  0  0  0  0  0  0  0  0  0  0  0
  -49.2665   57.0041   61.1337 C   0  0  0  0  0  0  0  0  0  0  0  0
  -49.2240   56.1215   59.9175 C   0  0  0  0  0  0  0  0  0  0  0  0
  -48.2218   56.5509   58.9223 C   0  0  0  0  0  0  0  0  0  0  0  0
  -47.0604   55.6666   58.8497 C   0  0  0  0  0  0  0  0  0  0  0  0
 17 16  1  0  0  0
 17 18  1  0  0  0
 17 19  1  0  0  0
 17 20  1  0  0  0
  5  6  1  0  0  0
  5  8  1  0  0  0
  5  4  1  0  0  0
 10  9  1  0  0  0
 10 11  2  0  0  0
 10 14  1  0  0  0
 10 12  1  0  0  0
  8  9  1  0  0  0
 15 16  1  0  0  0
 15 14  1  0  0  0
  3  4  1  0  0  0
  3  2  1  0  0  0
  1  2  2  0  0  0
  2 21  1  0  0  0
 21 22  1  0  0  0
 22 23  1  0  0  0
 23 24  1  0  0  0
 24 25  1  0  0  0
 25 26  1  0  0  0
 26 27  1  0  0  0
 27 28  1  0  0  0
 28 29  2  0  0  0
 29 30  1  0  0  0
 30 31  1  0  0  0
 31 32  1  0  0  0
 32 33  1  0  0  0
 33 34  1  0  0  0
 34 35  1  0  0  0
 35 36  1  0  0  0
 36 37  1  0  0  0
  6  7  1  0  0  0
 12 13  1  0  0  0
M  CHG 1  11  -1
M  END
> <minimizedAffinity>
-7.98912

$$$$



 37 36  0  0  0  0  0  0  0  0999 V2000
  -43.8484   60.0883   66.8418 O   0  0  0  0  0  0  0  0  0  0  0  0
  -42.8395   59.5482   66.5047 C   0  0  0  0  0  0  0  0  0  0  0  0
  -41.6314   59.8849   66.9563 O   0  0  0  0  0  0  0  0  0  0  0  0
  -40.5596   59.9764   65.9914 C   0  0  0  0  0  0  0  0  0  0  0  0
  -40.7121   61.3032   65.2839 C   0  0  0  0  0  0  0  0  0  0  0  0
  -39.7500   62.2272   65.7926 O   0  0  0  0  0  0  0  0  0  0  0  0
  -38.8566   61.9070   65.5921 H   0  0  0  0  0  0  0  0  0  0  0  0
  -40.5694   61.2465   63.7822 C   0  0  0  0  0  0  0  0  0  0  0  0
  -39.2415   61.6846   63.4305 O   0  0  0  0  0  0  0  0  0  0  0  0
  -38.2243   60.6574   62.7676 P   0  0  0  0  0  0  0  0  0  0  0  0
  -38.6819   59.3006   63.1293 O   0  0  0  0  0  0  0  0  0  0  0  0
  -38.1155   61.0237   61.3418 O   0  0  0  0  0  0  0  0  0  0  0  0
  -38.9743   60.8971   60.9090 H   0  0  0  0  0  0  0  0  0  0  0  0
  -36.7961   60.8837   63.4203 O   0  0  0  0  0  0  0  0  0  0  0  0
  -36.2273   59.8625   64.2732 C   0  0  0  0  0  0  0  0  0  0  0  0
  -35.0019   59.3535   63.5488 C   0  0  0  0  0  0  0  0  0  0  0  0
  -35.0775   57.9344   63.0214 N   0  0  0  0  0  0  0  0  0  0  0  0
  -35.8248   57.0478   63.9650 C   0  0  0  0  0  0  0  0  0  0  0  0
  -33.6955   57.3908   62.8483 C   0  0  0  0  0  0  0  0  0  0  0  0
  -35.7800   57.9273   61.7001 C   0  0  0  0  0  0  0  0  0  0  0  0
  -42.7703   58.4119   65.5377 C   0  0  0  0  0  0  0  0  0  0  0  0
  -44.0575   58.2202   64.7582 C   0  0  0  0  0  0  0  0  0  0  0  0
  -44.8302   56.9923   65.1894 C   0  0  0  0  0  0  0  0  0  0  0  0
  -45.9721   57.2722   66.1378 C   0  0  0  0  0  0  0  0  0  0  0  0
  -47.3307   56.9519   65.5687 C   0  0  0  0  0  0  0  0  0  0  0  0
  -47.7547   57.9326   64.5086 C   0  0  0  0  0  0  0  0  0  0  0  0
  -48.2190   59.2665   65.0140 C   0  0  0  0  0  0  0  0  0  0  0  0
  -49.5502   59.2227   65.6363 C   0  0  0  0  0  0  0  0  0  0  0  0
  -50.6638   59.7714   65.2034 C   0  0  0  0  0  0  0  0  0  0  0  0
  -50.8718   60.5587   63.9619 C   0  0  0  0  0  0  0  0  0  0  0  0
  -51.4812   59.7992   62.8013 C   0  0  0  0  0  0  0  0  0  0  0  0
  -50.4458   59.2404   61.8645 C   0  0  0  0  0  0  0  0  0  0  0  0
  -50.3399   57.7368   61.8678 C   0  0  0  0  0  0  0  0  0  0  0  0
  -50.6863   57.1265   60.5276 C   0  0  0  0  0  0  0  0  0  0  0  0
  -49.9846   57.7438   59.3502 C   0  0  0  0  0  0  0  0  0  0  0  0
  -49.0837   56.8052   58.6526 C   0  0  0  0  0  0  0  0  0  0  0  0
  -48.2780   55.9912   59.5606 C   0  0  0  0  0  0  0  0  0  0  0  0
 17 16  1  0  0  0
 17 18  1  0  0  0
 17 19  1  0  0  0
 17 20  1  0  0  0
  5  6  1  0  0  0
  5  8  1  0  0  0
  5  4  1  0  0  0
 10  9  1  0  0  0
 10 11  2  0  0  0
 10 14  1  0  0  0
 10 12  1  0  0  0
  8  9  1  0  0  0
 15 16  1  0  0  0
 15 14  1  0  0  0
  3  4  1  0  0  0
  3  2  1  0  0  0
  1  2  2  0  0  0
  2 21  1  0  0  0
 21 22  1  0  0  0
 22 23  1  0  0  0
 23 24  1  0  0  0
 24 25  1  0  0  0
 25 26  1  0  0  0
 26 27  1  0  0  0
 27 28  1  0  0  0
 28 29  2  0  0  0
 29 30  1  0  0  0
 30 31  1  0  0  0
 31 32  1  0  0  0
 32 33  1  0  0  0
 33 34  1  0  0  0
 34 35  1  0  0  0
 35 36  1  0  0  0
 36 37  1  0  0  0
  6  7  1  0  0  0
 12 13  1  0  0  0
M  CHG 1  11  -1
M  END
> <minimizedAffinity>
-7.93929

$$$$



 37 36  0  0  0  0  0  0  0  0999 V2000
  -34.1501   59.0869   64.4591 O   0  0  0  0  0  0  0  0  0  0  0  0
  -35.2786   58.7073   64.3870 C   0  0  0  0  0  0  0  0  0  0  0  0
  -36.3336   59.4488   64.7248 O   0  0  0  0  0  0  0  0  0  0  0  0
  -36.1338   60.4823   65.7147 C   0  0  0  0  0  0  0  0  0  0  0  0
  -36.4483   61.8017   65.0479 C   0  0  0  0  0  0  0  0  0  0  0  0
  -37.5270   62.4368   65.7343 O   0  0  0  0  0  0  0  0  0  0  0  0
  -37.2557   62.6428   66.6425 H   0  0  0  0  0  0  0  0  0  0  0  0
  -35.2940   62.7717   64.9750 C   0  0  0  0  0  0  0  0  0  0  0  0
  -34.4068   62.5133   66.0817 O   0  0  0  0  0  0  0  0  0  0  0  0
  -34.2551   63.5954   67.2373 P   0  0  0  0  0  0  0  0  0  0  0  0
  -35.6077   64.1140   67.5250 O   0  0  0  0  0  0  0  0  0  0  0  0
  -33.4837   62.9571   68.3219 O   0  0  0  0  0  0  0  0  0  0  0  0
  -33.9919   62.2161   68.6873 H   0  0  0  0  0  0  0  0  0  0  0  0
  -33.3780   64.7946   66.6808 O   0  0  0  0  0  0  0  0  0  0  0  0
  -32.1928   64.5141   65.8996 C   0  0  0  0  0  0  0  0  0  0  0  0
  -31.1143   65.4241   66.4422 C   0  0  0  0  0  0  0  0  0  0  0  0
  -30.4774   66.3742   65.4475 N   0  0  0  0  0  0  0  0  0  0  0  0
  -31.3063   66.4934   64.2092 C   0  0  0  0  0  0  0  0  0  0  0  0
  -29.1227   65.8674   65.0687 C   0  0  0  0  0  0  0  0  0  0  0  0
  -30.3423   67.7304   66.0654 C   0  0  0  0  0  0  0  0  0  0  0  0
  -35.6873   57.3549   63.9021 C   0  0  0  0  0  0  0  0  0  0  0  0
  -35.4500   57.1635   62.4160 C   0  0  0  0  0  0  0  0  0  0  0  0
  -36.7263   56.9093   61.6435 C   0  0  0  0  0  0  0  0  0  0  0  0
  -37.8782   57.8096   62.0237 C   0  0  0  0  0  0  0  0  0  0  0  0
  -37.9265   59.1002   61.2464 C   0  0  0  0  0  0  0  0  0  0  0  0
  -38.2756   60.2798   62.1135 C   0  0  0  0  0  0  0  0  0  0  0  0
  -39.5453   60.1467   62.9011 C   0  0  0  0  0  0  0  0  0  0  0  0
  -40.4937   61.2454   62.6678 C   0  0  0  0  0  0  0  0  0  0  0  0
  -41.6874   61.4088   63.1941 C   0  0  0  0  0  0  0  0  0  0  0  0
  -42.3790   60.5384   64.1782 C   0  0  0  0  0  0  0  0  0  0  0  0
  -41.5783   60.1871   65.4155 C   0  0  0  0  0  0  0  0  0  0  0  0
  -42.2568   59.1546   66.2732 C   0  0  0  0  0  0  0  0  0  0  0  0
  -42.1882   57.7475   65.7372 C   0  0  0  0  0  0  0  0  0  0  0  0
  -43.5436   57.0774   65.6872 C   0  0  0  0  0  0  0  0  0  0  0  0
  -44.5005   57.6580   64.6837 C   0  0  0  0  0  0  0  0  0  0  0  0
  -45.7591   58.1357   65.2893 C   0  0  0  0  0  0  0  0  0  0  0  0
  -45.8464   59.5923   65.3734 C   0  0  0  0  0  0  0  0  0  0  0  0
 17 16  1  0  0  0
 17 18  1  0  0  0
 17 19  1  0  0  0
 17 20  1  0  0  0
  5  6  1  0  0  0
  5  8  1  0  0  0
  5  4  1  0  0  0
 10  9  1  0  0  0
 10 11  2  0  0  0
 10 14  1  0  0  0
 10 12  1  0  0  0
  8  9  1  0  0  0
 15 16  1  0  0  0
 15 14  1  0  0  0
  3  4  1  0  0  0
  3  2  1  0  0  0
  1  2  2  0  0  0
  2 21  1  0  0  0
 21 22  1  0  0  0
 22 23  1  0  0  0
 23 24  1  0  0  0
 24 25  1  0  0  0
 25 26  1  0  0  0
 26 27  1  0  0  0
 27 28  1  0  0  0
 28 29  2  0  0  0
 29 30  1  0  0  0
 30 31  1  0  0  0
 31 32  1  0  0  0
 32 33  1  0  0  0
 33 34  1  0  0  0
 34 35  1  0  0  0
 35 36  1  0  0  0
 36 37  1  0  0  0
  6  7  1  0  0  0
 12 13  1  0  0  0
M  CHG 1  11  -1
M  END
> <minimizedAffinity>
-7.84831

$$$$



 37 36  0  0  0  0  0  0  0  0999 V2000
  -34.2277   57.9243   64.1563 O   0  0  0  0  0  0  0  0  0  0  0  0
  -35.2236   58.5145   64.4442 C   0  0  0  0  0  0  0  0  0  0  0  0
  -35.2942   59.8410   64.5540 O   0  0  0  0  0  0  0  0  0  0  0  0
  -36.2893   60.3848   65.4496 C   0  0  0  0  0  0  0  0  0  0  0  0
  -36.5756   61.7959   64.9901 C   0  0  0  0  0  0  0  0  0  0  0  0
  -37.6030   62.3622   65.8037 O   0  0  0  0  0  0  0  0  0  0  0  0
  -37.2912   62.4267   66.7199 H   0  0  0  0  0  0  0  0  0  0  0  0
  -35.3875   62.7269   65.0078 C   0  0  0  0  0  0  0  0  0  0  0  0
  -34.6108   62.4572   66.1922 O   0  0  0  0  0  0  0  0  0  0  0  0
  -34.4509   63.5855   67.3016 P   0  0  0  0  0  0  0  0  0  0  0  0
  -35.8121   64.0066   67.6901 O   0  0  0  0  0  0  0  0  0  0  0  0
  -33.5431   63.0455   68.3327 O   0  0  0  0  0  0  0  0  0  0  0  0
  -33.9580   62.2797   68.7597 H   0  0  0  0  0  0  0  0  0  0  0  0
  -33.7223   64.8302   66.6406 O   0  0  0  0  0  0  0  0  0  0  0  0
  -32.2988   64.7762   66.3864 C   0  0  0  0  0  0  0  0  0  0  0  0
  -32.0354   65.7841   65.2908 C   0  0  0  0  0  0  0  0  0  0  0  0
  -30.7845   65.5621   64.4639 N   0  0  0  0  0  0  0  0  0  0  0  0
  -30.1942   66.8619   64.0200 C   0  0  0  0  0  0  0  0  0  0  0  0
  -31.1223   64.7526   63.2532 C   0  0  0  0  0  0  0  0  0  0  0  0
  -29.7674   64.8286   65.2805 C   0  0  0  0  0  0  0  0  0  0  0  0
  -36.5420   57.8673   64.7163 C   0  0  0  0  0  0  0  0  0  0  0  0
  -37.3329   57.5838   63.4532 C   0  0  0  0  0  0  0  0  0  0  0  0
  -38.5546   58.4659   63.3124 C   0  0  0  0  0  0  0  0  0  0  0  0
  -39.5249   58.3806   64.4671 C   0  0  0  0  0  0  0  0  0  0  0  0
  -40.1355   59.7044   64.8502 C   0  0  0  0  0  0  0  0  0  0  0  0
  -41.1715   59.5666   65.9333 C   0  0  0  0  0  0  0  0  0  0  0  0
  -42.4181   58.8295   65.5421 C   0  0  0  0  0  0  0  0  0  0  0  0
  -43.4693   59.7060   65.0056 C   0  0  0  0  0  0  0  0  0  0  0  0
  -44.7686   59.6134   65.1842 C   0  0  0  0  0  0  0  0  0  0  0  0
  -45.5107   58.6133   65.9925 C   0  0  0  0  0  0  0  0  0  0  0  0
  -46.8801   59.0482   66.4733 C   0  0  0  0  0  0  0  0  0  0  0  0
  -47.8757   59.1763   65.3533 C   0  0  0  0  0  0  0  0  0  0  0  0
  -49.1669   59.8548   65.7333 C   0  0  0  0  0  0  0  0  0  0  0  0
  -50.3598   59.2915   64.9928 C   0  0  0  0  0  0  0  0  0  0  0  0
  -51.0032   60.2366   64.0168 C   0  0  0  0  0  0  0  0  0  0  0  0
  -50.8124   59.8370   62.6086 C   0  0  0  0  0  0  0  0  0  0  0  0
  -50.4916   58.4204   62.4458 C   0  0  0  0  0  0  0  0  0  0  0  0
 17 16  1  0  0  0
 17 18  1  0  0  0
 17 19  1  0  0  0
 17 20  1  0  0  0
  5  6  1  0  0  0
  5  8  1  0  0  0
  5  4  1  0  0  0
 10  9  1  0  0  0
 10 11  2  0  0  0
 10 14  1  0  0  0
 10 12  1  0  0  0
  8  9  1  0  0  0
 15 16  1  0  0  0
 15 14  1  0  0  0
  3  4  1  0  0  0
  3  2  1  0  0  0
  1  2  2  0  0  0
  2 21  1  0  0  0
 21 22  1  0  0  0
 22 23  1  0  0  0
 23 24  1  0  0  0
 24 25  1  0  0  0
 25 26  1  0  0  0
 26 27  1  0  0  0
 27 28  1  0  0  0
 28 29  2  0  0  0
 29 30  1  0  0  0
 30 31  1  0  0  0
 31 32  1  0  0  0
 32 33  1  0  0  0
 33 34  1  0  0  0
 34 35  1  0  0  0
 35 36  1  0  0  0
 36 37  1  0  0  0
  6  7  1  0  0  0
 12 13  1  0  0  0
M  CHG 1  11  -1
M  END
> <minimizedAffinity>
-7.82253

$$$$



 37 36  0  0  0  0  0  0  0  0999 V2000
  -43.2276   60.1328   66.8490 O   0  0  0  0  0  0  0  0  0  0  0  0
  -43.2338   59.7506   65.7190 C   0  0  0  0  0  0  0  0  0  0  0  0
  -42.1880   59.8462   64.8980 O   0  0  0  0  0  0  0  0  0  0  0  0
  -41.8542   61.1578   64.3918 C   0  0  0  0  0  0  0  0  0  0  0  0
  -40.3704   61.3509   64.6048 C   0  0  0  0  0  0  0  0  0  0  0  0
  -40.1557   62.1265   65.7840 O   0  0  0  0  0  0  0  0  0  0  0  0
  -40.4856   61.6400   66.5555 H   0  0  0  0  0  0  0  0  0  0  0  0
  -39.5707   60.0761   64.7218 C   0  0  0  0  0  0  0  0  0  0  0  0
  -38.9278   59.8199   63.4570 O   0  0  0  0  0  0  0  0  0  0  0  0
  -37.5582   60.5496   63.1088 P   0  0  0  0  0  0  0  0  0  0  0  0
  -36.4868   59.5406   63.2315 O   0  0  0  0  0  0  0  0  0  0  0  0
  -37.7558   61.2356   61.8168 O   0  0  0  0  0  0  0  0  0  0  0  0
  -37.9152   60.5775   61.1223 H   0  0  0  0  0  0  0  0  0  0  0  0
  -37.3031   61.6714   64.2013 O   0  0  0  0  0  0  0  0  0  0  0  0
  -35.9527   62.1159   64.4711 C   0  0  0  0  0  0  0  0  0  0  0  0
  -35.7795   63.4050   63.7006 C   0  0  0  0  0  0  0  0  0  0  0  0
  -34.4278   64.0804   63.8213 N   0  0  0  0  0  0  0  0  0  0  0  0
  -34.3811   64.9840   65.0114 C   0  0  0  0  0  0  0  0  0  0  0  0
  -34.1629   64.8924   62.5942 C   0  0  0  0  0  0  0  0  0  0  0  0
  -33.3598   63.0422   63.9666 C   0  0  0  0  0  0  0  0  0  0  0  0
  -44.4016   59.1009   65.0517 C   0  0  0  0  0  0  0  0  0  0  0  0
  -45.7341   59.5681   65.6064 C   0  0  0  0  0  0  0  0  0  0  0  0
  -46.4346   58.5076   66.4280 C   0  0  0  0  0  0  0  0  0  0  0  0
  -47.2470   57.5240   65.6191 C   0  0  0  0  0  0  0  0  0  0  0  0
  -47.8904   58.1244   64.3953 C   0  0  0  0  0  0  0  0  0  0  0  0
  -49.3904   58.1812   64.5048 C   0  0  0  0  0  0  0  0  0  0  0  0
  -49.9713   59.5519   64.6888 C   0  0  0  0  0  0  0  0  0  0  0  0
  -51.0599   59.8546   63.7484 C   0  0  0  0  0  0  0  0  0  0  0  0
  -50.9626   60.2224   62.4899 C   0  0  0  0  0  0  0  0  0  0  0  0
  -49.7288   60.4057   61.6845 C   0  0  0  0  0  0  0  0  0  0  0  0
  -49.6156   59.5287   60.4543 C   0  0  0  0  0  0  0  0  0  0  0  0
  -49.5852   58.0622   60.7867 C   0  0  0  0  0  0  0  0  0  0  0  0
  -49.8947   57.1478   59.6291 C   0  0  0  0  0  0  0  0  0  0  0  0
  -48.7562   57.0599   58.6368 C   0  0  0  0  0  0  0  0  0  0  0  0
  -48.0450   55.7359   58.6044 C   0  0  0  0  0  0  0  0  0  0  0  0
  -47.6355   55.3290   57.2458 C   0  0  0  0  0  0  0  0  0  0  0  0
  -47.4060   56.4579   56.3464 C   0  0  0  0  0  0  0  0  0  0  0  0
 17 16  1  0  0  0
 17 18  1  0  0  0
 17 19  1  0  0  0
 17 20  1  0  0  0
  5  6  1  0  0  0
  5  8  1  0  0  0
  5  4  1  0  0  0
 10  9  1  0  0  0
 10 11  2  0  0  0
 10 14  1  0  0  0
 10 12  1  0  0  0
  8  9  1  0  0  0
 15 16  1  0  0  0
 15 14  1  0  0  0
  3  4  1  0  0  0
  3  2  1  0  0  0
  1  2  2  0  0  0
  2 21  1  0  0  0
 21 22  1  0  0  0
 22 23  1  0  0  0
 23 24  1  0  0  0
 24 25  1  0  0  0
 25 26  1  0  0  0
 26 27  1  0  0  0
 27 28  1  0  0  0
 28 29  2  0  0  0
 29 30  1  0  0  0
 30 31  1  0  0  0
 31 32  1  0  0  0
 32 33  1  0  0  0
 33 34  1  0  0  0
 34 35  1  0  0  0
 35 36  1  0  0  0
 36 37  1  0  0  0
  6  7  1  0  0  0
 12 13  1  0  0  0
M  CHG 1  11  -1
M  END
> <minimizedAffinity>
-7.78936

$$$$
