


 37 36  0  0  0  0  0  0  0  0999 V2000
  -40.2591   60.7628   66.0708 O   0  0  0  0  0  0  0  0  0  0  0  0
  -41.0091   59.8209   66.0018 C   0  0  0  0  0  0  0  0  0  0  0  0
  -42.0181   59.4386   67.0409 C   0  0  0  0  0  0  0  0  0  0  0  0
  -42.8572   58.2294   66.6454 C   0  0  0  0  0  0  0  0  0  0  0  0
  -44.3308   58.5328   66.4358 C   0  0  0  0  0  0  0  0  0  0  0  0
  -45.1655   57.2993   66.1393 C   0  0  0  0  0  0  0  0  0  0  0  0
  -46.6596   57.5643   66.2113 C   0  0  0  0  0  0  0  0  0  0  0  0
  -47.0866   58.6861   65.2911 C   0  0  0  0  0  0  0  0  0  0  0  0
  -48.3261   59.4353   65.7361 C   0  0  0  0  0  0  0  0  0  0  0  0
  -49.5682   58.6312   65.6842 C   0  0  0  0  0  0  0  0  0  0  0  0
  -50.4060   58.5626   64.6702 C   0  0  0  0  0  0  0  0  0  0  0  0
  -50.2758   59.2383   63.3439 C   0  0  0  0  0  0  0  0  0  0  0  0
  -50.9819   58.4178   62.2633 C   0  0  0  0  0  0  0  0  0  0  0  0
  -50.2732   58.3646   60.9178 C   0  0  0  0  0  0  0  0  0  0  0  0
  -49.5108   57.0743   60.6419 C   0  0  0  0  0  0  0  0  0  0  0  0
  -48.8968   57.0159   59.2470 C   0  0  0  0  0  0  0  0  0  0  0  0
  -47.8112   55.9616   59.0995 C   0  0  0  0  0  0  0  0  0  0  0  0
  -47.1214   55.9221   57.7441 C   0  0  0  0  0  0  0  0  0  0  0  0
  -47.5126   57.0669   56.8610 C   0  0  0  0  0  0  0  0  0  0  0  0
  -41.0600   58.9751   64.9685 O   0  0  0  0  0  0  0  0  0  0  0  0
  -40.9904   59.5320   63.6375 C   0  0  0  0  0  0  0  0  0  0  0  0
  -41.5195   58.5659   62.5987 C   0  0  0  0  0  0  0  0  0  0  0  0
  -42.8533   58.1464   62.9169 O   0  0  0  0  0  0  0  0  0  0  0  0
  -43.4463   58.9138   62.8999 H   0  0  0  0  0  0  0  0  0  0  0  0
  -41.4937   59.1434   61.2029 C   0  0  0  0  0  0  0  0  0  0  0  0
  -40.4306   58.5710   60.4031 O   0  0  0  0  0  0  0  0  0  0  0  0
  -38.8319   58.6232   60.5348 P   0  0  0  0  0  0  0  0  0  0  0  0
  -38.4357   60.0275   60.9875 O   0  0  0  0  0  0  0  0  0  0  0  0
  -38.2384   58.3732   59.2030 O   0  0  0  0  0  0  0  0  0  0  0  0
  -38.5769   59.0260   58.5704 H   0  0  0  0  0  0  0  0  0  0  0  0
  -38.2831   57.5355   61.6397 O   0  0  0  0  0  0  0  0  0  0  0  0
  -37.5617   57.8512   62.8615 C   0  0  0  0  0  0  0  0  0  0  0  0
  -36.1385   58.2368   62.5420 C   0  0  0  0  0  0  0  0  0  0  0  0
  -35.1444   58.1645   63.6861 N   0  0  0  0  0  0  0  0  0  0  0  0
  -33.7837   57.8126   63.1763 C   0  0  0  0  0  0  0  0  0  0  0  0
  -35.5927   57.1083   64.6421 C   0  0  0  0  0  0  0  0  0  0  0  0
  -35.0680   59.4832   64.4015 C   0  0  0  0  0  0  0  0  0  0  0  0
 34 33  1  0  0  0
 34 35  1  0  0  0
 34 36  1  0  0  0
 34 37  1  0  0  0
 22 23  1  0  0  0
 22 25  1  0  0  0
 22 21  1  0  0  0
 27 26  1  0  0  0
 27 28  2  0  0  0
 27 31  1  0  0  0
 27 29  1  0  0  0
 25 26  1  0  0  0
 32 33  1  0  0  0
 32 31  1  0  0  0
 20 21  1  0  0  0
 20  2  1  0  0  0
  1  2  2  0  0  0
  2  3  1  0  0  0
  3  4  1  0  0  0
  4  5  1  0  0  0
  5  6  1  0  0  0
  6  7  1  0  0  0
  7  8  1  0  0  0
  8  9  1  0  0  0
  9 10  1  0  0  0
 10 11  2  0  0  0
 11 12  1  0  0  0
 12 13  1  0  0  0
 13 14  1  0  0  0
 14 15  1  0  0  0
 15 16  1  0  0  0
 16 17  1  0  0  0
 17 18  1  0  0  0
 18 19  1  0  0  0
 23 24  1  0  0  0
 29 30  1  0  0  0
M  CHG 1  28  -1
M  END
> <minimizedAffinity>
-7.96198

> <minimizedRMSD>
0.95037

> <CNNscore>
0.8749676347

> <CNNaffinity>
7.2074022293

> <CNN_VS>
6.3062438965

> <CNNaffinity_variance>
0.5737668276

$$$$
