


 59 58  0  0  0  0  0  0  0  0999 V2000
  -32.8876   65.1509   63.8062 C   0  0  0  0  0  0  0  0  0  0  0  0
  -34.2302   65.3364   64.3324 N   0  0  0  0  0  0  0  0  0  0  0  0
  -36.1596   65.9869   63.3920 O   0  0  0  0  0  0  0  0  0  0  0  0
  -35.3302   65.1145   63.6091 C   0  0  0  0  0  0  0  0  0  0  0  0
  -34.3327   65.6391   65.2636 H   0  0  0  0  0  0  0  0  0  0  0  0
  -35.5215   63.7031   63.0887 C   0  0  0  0  0  0  0  0  0  0  0  0
  -35.4374   62.7170   64.2523 C   0  0  0  0  0  0  0  0  0  0  0  0
  -35.9736   61.3400   63.8762 C   0  0  0  0  0  0  0  0  0  0  0  0
  -36.6224   60.6585   65.0814 C   0  0  0  0  0  0  0  0  0  0  0  0
  -38.0080   60.1220   64.7384 C   0  0  0  0  0  0  0  0  0  0  0  0
  -38.4541   59.0069   65.6781 C   0  0  0  0  0  0  0  0  0  0  0  0
  -39.7955   58.4538   65.2044 C   0  0  0  0  0  0  0  0  0  0  0  0
  -40.9825   59.1367   65.8749 C   0  0  0  0  0  0  0  0  0  0  0  0
  -42.2919   58.6142   65.2955 C   0  0  0  0  0  0  0  0  0  0  0  0
  -42.8969   57.4854   66.1309 C   0  0  0  0  0  0  0  0  0  0  0  0
  -44.0300   56.7747   65.3785 C   0  0  0  0  0  0  0  0  0  0  0  0
  -45.4263   57.1484   65.8795 C   0  0  0  0  0  0  0  0  0  0  0  0
  -46.0222   58.2728   65.0326 C   0  0  0  0  0  0  0  0  0  0  0  0
  -47.4943   58.5272   65.3537 C   0  0  0  0  0  0  0  0  0  0  0  0
  -48.2081   59.1302   64.1462 C   0  0  0  0  0  0  0  0  0  0  0  0
  -49.2985   58.2095   63.6065 C   0  0  0  0  0  0  0  0  0  0  0  0
  -50.6818   58.6652   64.0794 C   0  0  0  0  0  0  0  0  0  0  0  0
  -51.6784   58.8835   62.9363 C   0  0  0  0  0  0  0  0  0  0  0  0
  -50.9908   59.0882   61.5907 C   0  0  0  0  0  0  0  0  0  0  0  0
  -51.3063   57.9874   60.5751 C   0  0  0  0  0  0  0  0  0  0  0  0
  -50.0527   57.5996   59.7893 C   0  0  0  0  0  0  0  0  0  0  0  0
  -49.4472   56.2852   60.2690 C   0  0  0  0  0  0  0  0  0  0  0  0
  -48.2119   55.9296   59.4709 C   0  0  0  0  0  0  0  0  0  0  0  0
  -32.5815   64.2511   66.0364 O   0  0  0  0  0  0  0  0  0  0  0  0
  -31.8911   64.7755   64.8984 C   0  0  0  0  0  0  0  0  0  0  0  0
  -33.1993   64.9177   66.3753 H   0  0  0  0  0  0  0  0  0  0  0  0
  -30.9377   63.7235   64.3895 C   0  0  0  0  0  0  0  0  0  0  0  0
  -31.3791   62.8544   63.4857 C   0  0  0  0  0  0  0  0  0  0  0  0
  -30.4732   61.7793   62.9330 C   0  0  0  0  0  0  0  0  0  0  0  0
  -31.2324   60.9372   61.9086 C   0  0  0  0  0  0  0  0  0  0  0  0
  -32.5809   60.4718   62.4499 C   0  0  0  0  0  0  0  0  0  0  0  0
  -32.6791   58.9525   62.4054 C   0  0  0  0  0  0  0  0  0  0  0  0
  -32.9372   58.3716   63.7893 C   0  0  0  0  0  0  0  0  0  0  0  0
  -34.4041   58.0168   63.9709 C   0  0  0  0  0  0  0  0  0  0  0  0
  -34.9809   57.3400   62.7320 C   0  0  0  0  0  0  0  0  0  0  0  0
  -36.4955   57.5044   62.6733 C   0  0  0  0  0  0  0  0  0  0  0  0
  -36.8394   58.3843   61.4826 C   0  0  0  0  0  0  0  0  0  0  0  0
  -38.3310   58.3174   61.1855 C   0  0  0  0  0  0  0  0  0  0  0  0
  -38.9736   57.2090   62.0123 C   0  0  0  0  0  0  0  0  0  0  0  0
  -40.4861   57.1708   61.8296 C   0  0  0  0  0  0  0  0  0  0  0  0
  -41.0766   56.1006   62.7257 C   0  0  0  0  0  0  0  0  0  0  0  0
  -32.4391   66.4128   63.0723 C   0  0  0  0  0  0  0  0  0  0  0  0
  -33.1374   67.5754   63.5328 O   0  0  0  0  0  0  0  0  0  0  0  0
  -33.6703   68.6562   62.4536 P   0  0  0  0  0  0  0  0  0  0  0  0
  -32.5129   69.0331   61.5544 O   0  0  0  0  0  0  0  0  0  0  0  0
  -34.7755   68.0121   61.6451 O   0  0  0  0  0  0  0  0  0  0  0  0
  -35.5103   67.7757   62.2327 H   0  0  0  0  0  0  0  0  0  0  0  0
  -34.2323   70.0178   63.1201 O   0  0  0  0  0  0  0  0  0  0  0  0
  -34.4137   71.1771   62.2938 C   0  0  0  0  0  0  0  0  0  0  0  0
  -35.8492   71.3103   61.7726 C   0  0  0  0  0  0  0  0  0  0  0  0
  -36.3538   72.7028   61.7817 N   0  0  0  0  0  0  0  0  0  0  0  0
  -36.9883   72.9889   60.4853 C   0  0  0  0  0  0  0  0  0  0  0  0
  -35.2846   73.6870   62.0212 C   0  0  0  0  0  0  0  0  0  0  0  0
  -37.3676   72.8533   62.8354 C   0  0  0  0  0  0  0  0  0  0  0  0
 56 55  1  0  0  0
 56 57  1  0  0  0
 56 58  1  0  0  0
 56 59  1  0  0  0
 16 15  1  0  0  0
 16 17  1  0  0  0
 53 49  1  0  0  0
 53 54  1  0  0  0
 49 48  1  0  0  0
 49 50  2  0  0  0
 49 51  1  0  0  0
 15 14  1  0  0  0
  2  1  1  0  0  0
  2  4  1  0  0  0
 48 47  1  0  0  0
 17 18  1  0  0  0
 29 30  1  0  0  0
 14 13  1  0  0  0
  3  4  2  0  0  0
 18 19  1  0  0  0
 13 12  1  0  0  0
 19 20  1  0  0  0
 12 11  1  0  0  0
 20 21  1  0  0  0
 11 10  1  0  0  0
 21 22  1  0  0  0
 10  9  1  0  0  0
 22 23  1  0  0  0
  9  8  1  0  0  0
 23 24  1  0  0  0
  8  7  1  0  0  0
 24 25  1  0  0  0
  7  6  1  0  0  0
 39 38  1  0  0  0
 39 40  1  0  0  0
 25 26  1  0  0  0
 38 37  1  0  0  0
 40 41  1  0  0  0
 37 36  1  0  0  0
 41 42  1  0  0  0
 36 35  1  0  0  0
 42 43  1  0  0  0
  6  4  1  0  0  0
 26 27  1  0  0  0
 55 54  1  0  0  0
  1 30  1  0  0  0
  1 47  1  0  0  0
 35 34  1  0  0  0
 43 44  1  0  0  0
 30 32  1  0  0  0
 34 33  1  0  0  0
 44 45  1  0  0  0
 27 28  1  0  0  0
 32 33  2  0  0  0
 45 46  1  0  0  0
  2  5  1  0  0  0
 29 31  1  0  0  0
 51 52  1  0  0  0
M  CHG 1  50  -1
M  END
> <minimizedAffinity>
-7.47537

> <minimizedRMSD>
1.95455

> <CNNscore>
0.3214932084

> <CNNaffinity>
6.8137221336

> <CNN_VS>
2.1905653477

> <CNNaffinity_variance>
0.6143538952

$$$$
