


 19 18  0  0  0  0  0  0  0  0999 V2000
  -50.9916   60.6895   64.7968 C   0  0  0  0  0  0  0  0  0  0  0  0
  -49.7106   60.0689   65.3369 C   0  0  0  0  0  0  0  0  0  0  0  0
  -49.8655   58.5891   65.6440 C   0  0  0  0  0  0  0  0  0  0  0  0
  -48.7672   57.7935   64.9580 C   0  0  0  0  0  0  0  0  0  0  0  0
  -47.6345   58.7339   64.5878 C   0  0  0  0  0  0  0  0  0  0  0  0
  -46.3260   58.3268   65.2464 C   0  0  0  0  0  0  0  0  0  0  0  0
  -45.8578   59.4426   66.1472 C   0  0  0  0  0  0  0  0  0  0  0  0
  -45.1604   60.3669   65.6857 O   0  0  0  0  0  0  0  0  0  0  0  0
  -46.1518   59.4608   67.3614 O   0  0  0  0  0  0  0  0  0  0  0  0
  -46.6751   58.7749   67.7270 H   0  0  0  0  0  0  0  0  0  0  0  0
  -51.3112   59.9905   63.4834 C   0  0  0  0  0  0  0  0  0  0  0  0
  -50.2884   60.3062   62.4186 C   0  0  0  0  0  0  0  0  0  0  0  0
  -49.8817   59.2603   61.4666 C   0  0  0  0  0  0  0  0  0  0  0  0
  -50.3269   57.8398   61.7076 C   0  0  0  0  0  0  0  0  0  0  0  0
  -50.4964   57.0957   60.3875 C   0  0  0  0  0  0  0  0  0  0  0  0
  -50.2037   58.0282   59.2122 C   0  0  0  0  0  0  0  0  0  0  0  0
  -49.0621   57.5023   58.3435 C   0  0  0  0  0  0  0  0  0  0  0  0
  -47.6922   57.8963   58.9017 C   0  0  0  0  0  0  0  0  0  0  0  0
  -46.8044   58.5837   57.8676 C   0  0  0  0  0  0  0  0  0  0  0  0
  7  8  2  0  0  0
  7  6  1  0  0  0
  7  9  1  0  0  0
  6  5  1  0  0  0
  5  4  1  0  0  0
  4  3  1  0  0  0
  3  2  1  0  0  0
  2  1  1  0  0  0
  1 11  1  0  0  0
 11 12  1  0  0  0
 12 13  2  0  0  0
 13 14  1  0  0  0
 14 15  1  0  0  0
 15 16  1  0  0  0
 16 17  1  0  0  0
 17 18  1  0  0  0
 18 19  1  0  0  0
  9 10  1  0  0  0
M  END
> <minimizedAffinity>
-7.25085

$$$$



 19 18  0  0  0  0  0  0  0  0999 V2000
  -49.8860   58.3740   62.3859 C   0  0  0  0  0  0  0  0  0  0  0  0
  -50.7658   57.8198   61.2739 C   0  0  0  0  0  0  0  0  0  0  0  0
  -49.9612   57.1369   60.1811 C   0  0  0  0  0  0  0  0  0  0  0  0
  -49.2185   58.1720   59.3522 C   0  0  0  0  0  0  0  0  0  0  0  0
  -47.7576   57.7709   59.2558 C   0  0  0  0  0  0  0  0  0  0  0  0
  -47.2556   57.8114   57.8212 C   0  0  0  0  0  0  0  0  0  0  0  0
  -47.9285   56.7169   57.0308 C   0  0  0  0  0  0  0  0  0  0  0  0
  -47.8303   55.5300   57.3988 O   0  0  0  0  0  0  0  0  0  0  0  0
  -48.5866   56.9736   56.0003 O   0  0  0  0  0  0  0  0  0  0  0  0
  -48.6719   57.8596   55.7075 H   0  0  0  0  0  0  0  0  0  0  0  0
  -50.2842   59.8282   62.5921 C   0  0  0  0  0  0  0  0  0  0  0  0
  -51.0067   60.0298   63.9025 C   0  0  0  0  0  0  0  0  0  0  0  0
  -50.3720   60.8192   64.9701 C   0  0  0  0  0  0  0  0  0  0  0  0
  -48.9275   61.2248   64.8185 C   0  0  0  0  0  0  0  0  0  0  0  0
  -48.1157   60.7962   66.0360 C   0  0  0  0  0  0  0  0  0  0  0  0
  -48.0143   59.2722   66.0955 C   0  0  0  0  0  0  0  0  0  0  0  0
  -47.1530   58.7178   64.9617 C   0  0  0  0  0  0  0  0  0  0  0  0
  -45.6597   58.9296   65.2236 C   0  0  0  0  0  0  0  0  0  0  0  0
  -44.7782   57.9300   64.4795 C   0  0  0  0  0  0  0  0  0  0  0  0
  7  8  2  0  0  0
  7  6  1  0  0  0
  7  9  1  0  0  0
  6  5  1  0  0  0
  5  4  1  0  0  0
  4  3  1  0  0  0
  3  2  1  0  0  0
  2  1  1  0  0  0
  1 11  1  0  0  0
 11 12  1  0  0  0
 12 13  2  0  0  0
 13 14  1  0  0  0
 14 15  1  0  0  0
 15 16  1  0  0  0
 16 17  1  0  0  0
 17 18  1  0  0  0
 18 19  1  0  0  0
  9 10  1  0  0  0
M  END
> <minimizedAffinity>
-7.17350

$$$$



 19 18  0  0  0  0  0  0  0  0999 V2000
  -49.6974   58.4129   65.3121 C   0  0  0  0  0  0  0  0  0  0  0  0
  -49.6584   59.9024   65.6247 C   0  0  0  0  0  0  0  0  0  0  0  0
  -48.4370   60.2943   66.4388 C   0  0  0  0  0  0  0  0  0  0  0  0
  -47.3825   60.9144   65.5368 C   0  0  0  0  0  0  0  0  0  0  0  0
  -46.0880   60.1353   65.6834 C   0  0  0  0  0  0  0  0  0  0  0  0
  -46.1304   59.1908   66.8741 C   0  0  0  0  0  0  0  0  0  0  0  0
  -45.7168   57.8111   66.4259 C   0  0  0  0  0  0  0  0  0  0  0  0
  -46.5814   56.9409   66.2050 O   0  0  0  0  0  0  0  0  0  0  0  0
  -44.5129   57.5140   66.2731 O   0  0  0  0  0  0  0  0  0  0  0  0
  -43.8482   58.1545   66.4342 H   0  0  0  0  0  0  0  0  0  0  0  0
  -49.2009   58.2399   63.8840 C   0  0  0  0  0  0  0  0  0  0  0  0
  -49.5340   59.4375   63.0271 C   0  0  0  0  0  0  0  0  0  0  0  0
  -50.4357   59.2804   61.8748 C   0  0  0  0  0  0  0  0  0  0  0  0
  -50.8335   57.8915   61.4424 C   0  0  0  0  0  0  0  0  0  0  0  0
  -50.3191   57.5952   60.0379 C   0  0  0  0  0  0  0  0  0  0  0  0
  -49.3253   56.4344   60.0713 C   0  0  0  0  0  0  0  0  0  0  0  0
  -48.1336   56.6832   59.1480 C   0  0  0  0  0  0  0  0  0  0  0  0
  -47.8332   58.1764   58.9939 C   0  0  0  0  0  0  0  0  0  0  0  0
  -46.8637   58.4729   57.8527 C   0  0  0  0  0  0  0  0  0  0  0  0
  7  8  2  0  0  0
  7  6  1  0  0  0
  7  9  1  0  0  0
  6  5  1  0  0  0
  5  4  1  0  0  0
  4  3  1  0  0  0
  3  2  1  0  0  0
  2  1  1  0  0  0
  1 11  1  0  0  0
 11 12  1  0  0  0
 12 13  2  0  0  0
 13 14  1  0  0  0
 14 15  1  0  0  0
 15 16  1  0  0  0
 16 17  1  0  0  0
 17 18  1  0  0  0
 18 19  1  0  0  0
  9 10  1  0  0  0
M  END
> <minimizedAffinity>
-7.16400

$$$$



 19 18  0  0  0  0  0  0  0  0999 V2000
  -48.9254   59.0265   64.3545 C   0  0  0  0  0  0  0  0  0  0  0  0
  -49.0731   60.4960   63.9853 C   0  0  0  0  0  0  0  0  0  0  0  0
  -48.1075   61.3874   64.7477 C   0  0  0  0  0  0  0  0  0  0  0  0
  -47.4729   60.6147   65.8923 C   0  0  0  0  0  0  0  0  0  0  0  0
  -46.0184   60.3399   65.5556 C   0  0  0  0  0  0  0  0  0  0  0  0
  -45.3358   59.5161   66.6358 C   0  0  0  0  0  0  0  0  0  0  0  0
  -45.5743   58.0514   66.3655 C   0  0  0  0  0  0  0  0  0  0  0  0
  -45.1397   57.5305   65.3198 O   0  0  0  0  0  0  0  0  0  0  0  0
  -46.2089   57.3392   67.1723 O   0  0  0  0  0  0  0  0  0  0  0  0
  -46.5436   57.7124   67.9639 H   0  0  0  0  0  0  0  0  0  0  0  0
  -49.1023   58.2213   63.0754 C   0  0  0  0  0  0  0  0  0  0  0  0
  -50.4053   58.5466   62.3855 C   0  0  0  0  0  0  0  0  0  0  0  0
  -50.6706   58.0114   61.0406 C   0  0  0  0  0  0  0  0  0  0  0  0
  -49.5518   57.3337   60.2901 C   0  0  0  0  0  0  0  0  0  0  0  0
  -48.8231   58.3285   59.3933 C   0  0  0  0  0  0  0  0  0  0  0  0
  -47.4275   57.8084   59.0493 C   0  0  0  0  0  0  0  0  0  0  0  0
  -47.0547   58.1062   57.5978 C   0  0  0  0  0  0  0  0  0  0  0  0
  -47.9134   57.3086   56.6130 C   0  0  0  0  0  0  0  0  0  0  0  0
  -47.8175   55.8003   56.8271 C   0  0  0  0  0  0  0  0  0  0  0  0
  7  8  2  0  0  0
  7  6  1  0  0  0
  7  9  1  0  0  0
  6  5  1  0  0  0
  5  4  1  0  0  0
  4  3  1  0  0  0
  3  2  1  0  0  0
  2  1  1  0  0  0
  1 11  1  0  0  0
 11 12  1  0  0  0
 12 13  2  0  0  0
 13 14  1  0  0  0
 14 15  1  0  0  0
 15 16  1  0  0  0
 16 17  1  0  0  0
 17 18  1  0  0  0
 18 19  1  0  0  0
  9 10  1  0  0  0
M  END
> <minimizedAffinity>
-6.97862

$$$$



 19 18  0  0  0  0  0  0  0  0999 V2000
  -50.6268   58.9821   62.4928 C   0  0  0  0  0  0  0  0  0  0  0  0
  -49.8360   58.0271   61.6094 C   0  0  0  0  0  0  0  0  0  0  0  0
  -50.6737   57.4495   60.4812 C   0  0  0  0  0  0  0  0  0  0  0  0
  -50.1936   57.9875   59.1432 C   0  0  0  0  0  0  0  0  0  0  0  0
  -48.6838   58.1400   59.1860 C   0  0  0  0  0  0  0  0  0  0  0  0
  -48.0361   57.7019   57.8820 C   0  0  0  0  0  0  0  0  0  0  0  0
  -47.8662   56.2031   57.8934 C   0  0  0  0  0  0  0  0  0  0  0  0
  -47.8420   55.5692   56.8204 O   0  0  0  0  0  0  0  0  0  0  0  0
  -47.7523   55.5727   58.9660 O   0  0  0  0  0  0  0  0  0  0  0  0
  -47.7682   56.0314   59.7829 H   0  0  0  0  0  0  0  0  0  0  0  0
  -50.0174   58.9155   63.8856 C   0  0  0  0  0  0  0  0  0  0  0  0
  -50.5122   60.0373   64.7668 C   0  0  0  0  0  0  0  0  0  0  0  0
  -49.6457   61.1988   65.0226 C   0  0  0  0  0  0  0  0  0  0  0  0
  -48.2043   61.1461   64.5822 C   0  0  0  0  0  0  0  0  0  0  0  0
  -47.2867   60.8743   65.7692 C   0  0  0  0  0  0  0  0  0  0  0  0
  -46.2590   59.8013   65.4098 C   0  0  0  0  0  0  0  0  0  0  0  0
  -45.6591   59.1525   66.6563 C   0  0  0  0  0  0  0  0  0  0  0  0
  -45.7754   57.6266   66.6174 C   0  0  0  0  0  0  0  0  0  0  0  0
  -47.0258   57.1443   65.8867 C   0  0  0  0  0  0  0  0  0  0  0  0
  7  8  2  0  0  0
  7  6  1  0  0  0
  7  9  1  0  0  0
  6  5  1  0  0  0
  5  4  1  0  0  0
  4  3  1  0  0  0
  3  2  1  0  0  0
  2  1  1  0  0  0
  1 11  1  0  0  0
 11 12  1  0  0  0
 12 13  2  0  0  0
 13 14  1  0  0  0
 14 15  1  0  0  0
 15 16  1  0  0  0
 16 17  1  0  0  0
 17 18  1  0  0  0
 18 19  1  0  0  0
  9 10  1  0  0  0
M  END
> <minimizedAffinity>
-6.90015

$$$$



 19 18  0  0  0  0  0  0  0  0999 V2000
  -51.1177   60.0925   63.7373 C   0  0  0  0  0  0  0  0  0  0  0  0
  -50.6252   59.6696   62.3602 C   0  0  0  0  0  0  0  0  0  0  0  0
  -50.1133   58.2393   62.3393 C   0  0  0  0  0  0  0  0  0  0  0  0
  -50.4929   57.5656   61.0308 C   0  0  0  0  0  0  0  0  0  0  0  0
  -50.0562   58.4493   59.8763 C   0  0  0  0  0  0  0  0  0  0  0  0
  -49.4856   57.6337   58.7270 C   0  0  0  0  0  0  0  0  0  0  0  0
  -48.2058   56.9737   59.1766 C   0  0  0  0  0  0  0  0  0  0  0  0
  -47.2654   57.6664   59.6119 O   0  0  0  0  0  0  0  0  0  0  0  0
  -48.0618   55.7340   59.1183 O   0  0  0  0  0  0  0  0  0  0  0  0
  -48.7572   55.1963   58.7941 H   0  0  0  0  0  0  0  0  0  0  0  0
  -49.9049   60.1348   64.6555 C   0  0  0  0  0  0  0  0  0  0  0  0
  -48.9815   61.2784   64.3101 C   0  0  0  0  0  0  0  0  0  0  0  0
  -47.6107   61.2945   64.8448 C   0  0  0  0  0  0  0  0  0  0  0  0
  -47.2259   60.2878   65.8997 C   0  0  0  0  0  0  0  0  0  0  0  0
  -45.8430   59.7112   65.6170 C   0  0  0  0  0  0  0  0  0  0  0  0
  -45.9660   58.3245   64.9857 C   0  0  0  0  0  0  0  0  0  0  0  0
  -44.6031   57.7636   64.5827 C   0  0  0  0  0  0  0  0  0  0  0  0
  -43.4567   58.6759   65.0265 C   0  0  0  0  0  0  0  0  0  0  0  0
  -42.5342   58.0168   66.0485 C   0  0  0  0  0  0  0  0  0  0  0  0
  7  8  2  0  0  0
  7  6  1  0  0  0
  7  9  1  0  0  0
  6  5  1  0  0  0
  5  4  1  0  0  0
  4  3  1  0  0  0
  3  2  1  0  0  0
  2  1  1  0  0  0
  1 11  1  0  0  0
 11 12  1  0  0  0
 12 13  2  0  0  0
 13 14  1  0  0  0
 14 15  1  0  0  0
 15 16  1  0  0  0
 16 17  1  0  0  0
 17 18  1  0  0  0
 18 19  1  0  0  0
  9 10  1  0  0  0
M  END
> <minimizedAffinity>
-6.64792

$$$$



 19 18  0  0  0  0  0  0  0  0999 V2000
  -47.9033   59.2230   64.7290 C   0  0  0  0  0  0  0  0  0  0  0  0
  -46.9641   58.2268   65.3948 C   0  0  0  0  0  0  0  0  0  0  0  0
  -45.6170   58.1417   64.6977 C   0  0  0  0  0  0  0  0  0  0  0  0
  -44.5241   58.6908   65.5999 C   0  0  0  0  0  0  0  0  0  0  0  0
  -44.1540   60.0870   65.1329 C   0  0  0  0  0  0  0  0  0  0  0  0
  -42.6718   60.3694   65.3200 C   0  0  0  0  0  0  0  0  0  0  0  0
  -42.3154   60.1971   66.7756 C   0  0  0  0  0  0  0  0  0  0  0  0
  -41.6473   59.2109   67.1425 O   0  0  0  0  0  0  0  0  0  0  0  0
  -42.6822   61.0271   67.6343 O   0  0  0  0  0  0  0  0  0  0  0  0
  -43.1852   61.7750   67.3782 H   0  0  0  0  0  0  0  0  0  0  0  0
  -49.0667   58.4288   64.1532 C   0  0  0  0  0  0  0  0  0  0  0  0
  -50.1103   59.3310   63.5394 C   0  0  0  0  0  0  0  0  0  0  0  0
  -50.7398   58.9538   62.2639 C   0  0  0  0  0  0  0  0  0  0  0  0
  -50.1762   57.7907   61.4868 C   0  0  0  0  0  0  0  0  0  0  0  0
  -50.6811   57.8073   60.0481 C   0  0  0  0  0  0  0  0  0  0  0  0
  -49.5279   57.5488   59.0787 C   0  0  0  0  0  0  0  0  0  0  0  0
  -48.1834   57.9608   59.6763 C   0  0  0  0  0  0  0  0  0  0  0  0
  -47.0152   57.6009   58.7548 C   0  0  0  0  0  0  0  0  0  0  0  0
  -46.7434   58.6663   57.6959 C   0  0  0  0  0  0  0  0  0  0  0  0
  7  8  2  0  0  0
  7  6  1  0  0  0
  7  9  1  0  0  0
  6  5  1  0  0  0
  5  4  1  0  0  0
  4  3  1  0  0  0
  3  2  1  0  0  0
  2  1  1  0  0  0
  1 11  1  0  0  0
 11 12  1  0  0  0
 12 13  2  0  0  0
 13 14  1  0  0  0
 14 15  1  0  0  0
 15 16  1  0  0  0
 16 17  1  0  0  0
 17 18  1  0  0  0
 18 19  1  0  0  0
  9 10  1  0  0  0
M  END
> <minimizedAffinity>
-6.58953

$$$$



 19 18  0  0  0  0  0  0  0  0999 V2000
  -50.3586   58.9753   62.2805 C   0  0  0  0  0  0  0  0  0  0  0  0
  -49.6120   57.9220   61.4737 C   0  0  0  0  0  0  0  0  0  0  0  0
  -50.4529   57.3490   60.3456 C   0  0  0  0  0  0  0  0  0  0  0  0
  -49.8706   57.7520   59.0007 C   0  0  0  0  0  0  0  0  0  0  0  0
  -48.3555   57.7265   59.0917 C   0  0  0  0  0  0  0  0  0  0  0  0
  -47.7919   56.3627   58.7255 C   0  0  0  0  0  0  0  0  0  0  0  0
  -47.7996   56.2112   57.2246 C   0  0  0  0  0  0  0  0  0  0  0  0
  -47.5254   57.1856   56.4972 O   0  0  0  0  0  0  0  0  0  0  0  0
  -48.0821   55.1201   56.6857 O   0  0  0  0  0  0  0  0  0  0  0  0
  -48.2910   54.3760   57.2155 H   0  0  0  0  0  0  0  0  0  0  0  0
  -49.7917   58.9459   63.6924 C   0  0  0  0  0  0  0  0  0  0  0  0
  -50.4078   60.0131   64.5648 C   0  0  0  0  0  0  0  0  0  0  0  0
  -49.6199   61.2018   64.9275 C   0  0  0  0  0  0  0  0  0  0  0  0
  -48.1467   61.2280   64.6058 C   0  0  0  0  0  0  0  0  0  0  0  0
  -47.3263   60.7313   65.7911 C   0  0  0  0  0  0  0  0  0  0  0  0
  -46.4121   59.5848   65.3597 C   0  0  0  0  0  0  0  0  0  0  0  0
  -44.9589   60.0384   65.2293 C   0  0  0  0  0  0  0  0  0  0  0  0
  -44.0382   58.8899   64.8092 C   0  0  0  0  0  0  0  0  0  0  0  0
  -42.6026   59.0707   65.2955 C   0  0  0  0  0  0  0  0  0  0  0  0
  7  8  2  0  0  0
  7  6  1  0  0  0
  7  9  1  0  0  0
  6  5  1  0  0  0
  5  4  1  0  0  0
  4  3  1  0  0  0
  3  2  1  0  0  0
  2  1  1  0  0  0
  1 11  1  0  0  0
 11 12  1  0  0  0
 12 13  2  0  0  0
 13 14  1  0  0  0
 14 15  1  0  0  0
 15 16  1  0  0  0
 16 17  1  0  0  0
 17 18  1  0  0  0
 18 19  1  0  0  0
  9 10  1  0  0  0
M  END
> <minimizedAffinity>
-6.57648

$$$$



 19 18  0  0  0  0  0  0  0  0999 V2000
  -49.8482   59.4422   65.3818 C   0  0  0  0  0  0  0  0  0  0  0  0
  -49.0729   60.7185   65.0858 C   0  0  0  0  0  0  0  0  0  0  0  0
  -47.9924   60.9954   66.1173 C   0  0  0  0  0  0  0  0  0  0  0  0
  -47.0197   59.8295   66.1835 C   0  0  0  0  0  0  0  0  0  0  0  0
  -45.7540   60.1996   65.4314 C   0  0  0  0  0  0  0  0  0  0  0  0
  -44.5058   59.8917   66.2431 C   0  0  0  0  0  0  0  0  0  0  0  0
  -43.8928   58.6085   65.7398 C   0  0  0  0  0  0  0  0  0  0  0  0
  -42.9007   58.6439   64.9861 O   0  0  0  0  0  0  0  0  0  0  0  0
  -44.3641   57.4968   66.0605 O   0  0  0  0  0  0  0  0  0  0  0  0
  -45.1096   57.4495   66.6261 H   0  0  0  0  0  0  0  0  0  0  0  0
  -49.8977   58.6365   64.0917 C   0  0  0  0  0  0  0  0  0  0  0  0
  -50.0925   59.5235   62.8855 C   0  0  0  0  0  0  0  0  0  0  0  0
  -50.1976   58.9204   61.5474 C   0  0  0  0  0  0  0  0  0  0  0  0
  -49.8901   57.4534   61.3810 C   0  0  0  0  0  0  0  0  0  0  0  0
  -49.6523   57.1147   59.9134 C   0  0  0  0  0  0  0  0  0  0  0  0
  -48.9250   58.2637   59.2155 C   0  0  0  0  0  0  0  0  0  0  0  0
  -47.4324   57.9766   59.0594 C   0  0  0  0  0  0  0  0  0  0  0  0
  -46.9372   58.2842   57.6439 C   0  0  0  0  0  0  0  0  0  0  0  0
  -47.5761   57.3911   56.5836 C   0  0  0  0  0  0  0  0  0  0  0  0
  7  8  2  0  0  0
  7  6  1  0  0  0
  7  9  1  0  0  0
  6  5  1  0  0  0
  5  4  1  0  0  0
  4  3  1  0  0  0
  3  2  1  0  0  0
  2  1  1  0  0  0
  1 11  1  0  0  0
 11 12  1  0  0  0
 12 13  2  0  0  0
 13 14  1  0  0  0
 14 15  1  0  0  0
 15 16  1  0  0  0
 16 17  1  0  0  0
 17 18  1  0  0  0
 18 19  1  0  0  0
  9 10  1  0  0  0
M  END
> <minimizedAffinity>
-6.52393

$$$$
