


 37 36  0  0  0  0  0  0  0  0999 V2000
  -42.0940   60.9615   63.6557 O   0  0  0  0  0  0  0  0  0  0  0  0
  -41.9460   60.4668   64.7310 C   0  0  0  0  0  0  0  0  0  0  0  0
  -40.8345   60.5883   65.4567 O   0  0  0  0  0  0  0  0  0  0  0  0
  -39.6011   60.1123   64.8735 C   0  0  0  0  0  0  0  0  0  0  0  0
  -38.5452   61.1562   65.1559 C   0  0  0  0  0  0  0  0  0  0  0  0
  -39.1525   62.2941   65.7677 O   0  0  0  0  0  0  0  0  0  0  0  0
  -39.5266   62.0389   66.6255 H   0  0  0  0  0  0  0  0  0  0  0  0
  -37.4085   60.6935   66.0348 C   0  0  0  0  0  0  0  0  0  0  0  0
  -36.8050   61.8490   66.6507 O   0  0  0  0  0  0  0  0  0  0  0  0
  -35.3943   62.3696   66.1326 P   0  0  0  0  0  0  0  0  0  0  0  0
  -35.4893   63.8393   66.0222 O   0  0  0  0  0  0  0  0  0  0  0  0
  -34.3700   61.7794   67.0166 O   0  0  0  0  0  0  0  0  0  0  0  0
  -34.4874   62.1173   67.9182 H   0  0  0  0  0  0  0  0  0  0  0  0
  -35.1534   61.7829   64.6784 O   0  0  0  0  0  0  0  0  0  0  0  0
  -34.1351   60.7760   64.4709 C   0  0  0  0  0  0  0  0  0  0  0  0
  -34.8297   59.6192   63.7890 C   0  0  0  0  0  0  0  0  0  0  0  0
  -34.2671   58.2403   64.0715 N   0  0  0  0  0  0  0  0  0  0  0  0
  -33.2702   58.2826   65.1847 C   0  0  0  0  0  0  0  0  0  0  0  0
  -33.5919   57.7148   62.8453 C   0  0  0  0  0  0  0  0  0  0  0  0
  -35.3778   57.3152   64.4586 C   0  0  0  0  0  0  0  0  0  0  0  0
  -42.9773   59.6466   65.4345 C   0  0  0  0  0  0  0  0  0  0  0  0
  -42.3980   58.4116   66.0983 C   0  0  0  0  0  0  0  0  0  0  0  0
  -43.1419   57.1444   65.7363 C   0  0  0  0  0  0  0  0  0  0  0  0
  -44.5205   57.3700   65.1616 C   0  0  0  0  0  0  0  0  0  0  0  0
  -45.6387   57.1152   66.1398 C   0  0  0  0  0  0  0  0  0  0  0  0
  -46.7315   58.1458   66.0436 C   0  0  0  0  0  0  0  0  0  0  0  0
  -47.3592   58.2943   64.6893 C   0  0  0  0  0  0  0  0  0  0  0  0
  -48.6729   57.6434   64.5813 C   0  0  0  0  0  0  0  0  0  0  0  0
  -49.8587   58.1788   64.7703 C   0  0  0  0  0  0  0  0  0  0  0  0
  -50.1809   59.5854   65.1197 C   0  0  0  0  0  0  0  0  0  0  0  0
  -51.1842   60.2700   64.2141 C   0  0  0  0  0  0  0  0  0  0  0  0
  -51.1145   59.7800   62.7939 C   0  0  0  0  0  0  0  0  0  0  0  0
  -49.9072   60.2509   62.0241 C   0  0  0  0  0  0  0  0  0  0  0  0
  -49.6912   59.4701   60.7465 C   0  0  0  0  0  0  0  0  0  0  0  0
  -49.5235   57.9876   60.9309 C   0  0  0  0  0  0  0  0  0  0  0  0
  -49.2913   57.2667   59.6638 C   0  0  0  0  0  0  0  0  0  0  0  0
  -48.9326   55.8624   59.8526 C   0  0  0  0  0  0  0  0  0  0  0  0
 17 16  1  0  0  0
 17 18  1  0  0  0
 17 19  1  0  0  0
 17 20  1  0  0  0
  5  6  1  0  0  0
  5  8  1  0  0  0
  5  4  1  0  0  0
 10  9  1  0  0  0
 10 11  2  0  0  0
 10 14  1  0  0  0
 10 12  1  0  0  0
  8  9  1  0  0  0
 15 16  1  0  0  0
 15 14  1  0  0  0
  3  4  1  0  0  0
  3  2  1  0  0  0
  1  2  2  0  0  0
  2 21  1  0  0  0
 21 22  1  0  0  0
 22 23  1  0  0  0
 23 24  1  0  0  0
 24 25  1  0  0  0
 25 26  1  0  0  0
 26 27  1  0  0  0
 27 28  1  0  0  0
 28 29  2  0  0  0
 29 30  1  0  0  0
 30 31  1  0  0  0
 31 32  1  0  0  0
 32 33  1  0  0  0
 33 34  1  0  0  0
 34 35  1  0  0  0
 35 36  1  0  0  0
 36 37  1  0  0  0
  6  7  1  0  0  0
 12 13  1  0  0  0
M  CHG 1  11  -1
M  END
> <minimizedAffinity>
-8.11912

$$$$



 37 36  0  0  0  0  0  0  0  0999 V2000
  -41.6999   60.6405   63.1161 O   0  0  0  0  0  0  0  0  0  0  0  0
  -41.8713   60.3559   64.2618 C   0  0  0  0  0  0  0  0  0  0  0  0
  -40.9538   60.5265   65.2137 O   0  0  0  0  0  0  0  0  0  0  0  0
  -39.6129   60.0631   64.9392 C   0  0  0  0  0  0  0  0  0  0  0  0
  -38.6773   61.2127   65.2348 C   0  0  0  0  0  0  0  0  0  0  0  0
  -39.4111   62.2823   65.8313 O   0  0  0  0  0  0  0  0  0  0  0  0
  -39.7711   61.9915   66.6837 H   0  0  0  0  0  0  0  0  0  0  0  0
  -37.5138   60.8741   66.1348 C   0  0  0  0  0  0  0  0  0  0  0  0
  -36.6105   61.9977   66.1595 O   0  0  0  0  0  0  0  0  0  0  0  0
  -35.1708   61.8641   65.4971 P   0  0  0  0  0  0  0  0  0  0  0  0
  -34.2066   61.6549   66.5960 O   0  0  0  0  0  0  0  0  0  0  0  0
  -35.2822   60.8458   64.4342 O   0  0  0  0  0  0  0  0  0  0  0  0
  -35.4968   59.9869   64.8306 H   0  0  0  0  0  0  0  0  0  0  0  0
  -34.8201   63.2414   64.7922 O   0  0  0  0  0  0  0  0  0  0  0  0
  -33.5864   63.3724   64.0476 C   0  0  0  0  0  0  0  0  0  0  0  0
  -32.8590   64.5501   64.6555 C   0  0  0  0  0  0  0  0  0  0  0  0
  -32.0457   65.4002   63.6997 N   0  0  0  0  0  0  0  0  0  0  0  0
  -32.9288   66.1080   62.7229 C   0  0  0  0  0  0  0  0  0  0  0  0
  -31.0953   64.5302   62.9413 C   0  0  0  0  0  0  0  0  0  0  0  0
  -31.2713   66.4216   64.4721 C   0  0  0  0  0  0  0  0  0  0  0  0
  -43.1341   59.7764   64.8101 C   0  0  0  0  0  0  0  0  0  0  0  0
  -42.9001   58.8814   66.0125 C   0  0  0  0  0  0  0  0  0  0  0  0
  -43.0872   57.4127   65.6991 C   0  0  0  0  0  0  0  0  0  0  0  0
  -44.4207   57.0700   65.0776 C   0  0  0  0  0  0  0  0  0  0  0  0
  -45.5786   57.1393   66.0403 C   0  0  0  0  0  0  0  0  0  0  0  0
  -46.4976   58.2955   65.7505 C   0  0  0  0  0  0  0  0  0  0  0  0
  -47.2667   58.2007   64.4662 C   0  0  0  0  0  0  0  0  0  0  0  0
  -48.5891   57.5780   64.6234 C   0  0  0  0  0  0  0  0  0  0  0  0
  -49.7208   58.1569   64.9595 C   0  0  0  0  0  0  0  0  0  0  0  0
  -49.9623   59.5937   65.2455 C   0  0  0  0  0  0  0  0  0  0  0  0
  -51.0933   60.2336   64.4665 C   0  0  0  0  0  0  0  0  0  0  0  0
  -51.2004   59.7093   63.0609 C   0  0  0  0  0  0  0  0  0  0  0  0
  -50.3386   60.4271   62.0540 C   0  0  0  0  0  0  0  0  0  0  0  0
  -49.5508   59.4764   61.1799 C   0  0  0  0  0  0  0  0  0  0  0  0
  -50.2054   58.1440   60.9430 C   0  0  0  0  0  0  0  0  0  0  0  0
  -49.2752   57.0062   61.0822 C   0  0  0  0  0  0  0  0  0  0  0  0
  -49.1157   56.2333   59.8520 C   0  0  0  0  0  0  0  0  0  0  0  0
 17 16  1  0  0  0
 17 18  1  0  0  0
 17 19  1  0  0  0
 17 20  1  0  0  0
  5  6  1  0  0  0
  5  8  1  0  0  0
  5  4  1  0  0  0
 10  9  1  0  0  0
 10 11  2  0  0  0
 10 14  1  0  0  0
 10 12  1  0  0  0
  8  9  1  0  0  0
 15 16  1  0  0  0
 15 14  1  0  0  0
  3  4  1  0  0  0
  3  2  1  0  0  0
  1  2  2  0  0  0
  2 21  1  0  0  0
 21 22  1  0  0  0
 22 23  1  0  0  0
 23 24  1  0  0  0
 24 25  1  0  0  0
 25 26  1  0  0  0
 26 27  1  0  0  0
 27 28  1  0  0  0
 28 29  2  0  0  0
 29 30  1  0  0  0
 30 31  1  0  0  0
 31 32  1  0  0  0
 32 33  1  0  0  0
 33 34  1  0  0  0
 34 35  1  0  0  0
 35 36  1  0  0  0
 36 37  1  0  0  0
  6  7  1  0  0  0
 12 13  1  0  0  0
M  CHG 1  11  -1
M  END
> <minimizedAffinity>
-7.83380

$$$$



 37 36  0  0  0  0  0  0  0  0999 V2000
  -41.4826   60.8304   63.0973 O   0  0  0  0  0  0  0  0  0  0  0  0
  -41.8816   60.6279   64.2031 C   0  0  0  0  0  0  0  0  0  0  0  0
  -41.1321   60.7587   65.2976 O   0  0  0  0  0  0  0  0  0  0  0  0
  -39.9385   59.9495   65.3900 C   0  0  0  0  0  0  0  0  0  0  0  0
  -38.7805   60.8157   64.9504 C   0  0  0  0  0  0  0  0  0  0  0  0
  -38.7811   62.0290   65.7027 O   0  0  0  0  0  0  0  0  0  0  0  0
  -38.6367   61.8280   66.6406 H   0  0  0  0  0  0  0  0  0  0  0  0
  -37.4193   60.1763   65.0801 C   0  0  0  0  0  0  0  0  0  0  0  0
  -37.1476   59.4276   63.8782 O   0  0  0  0  0  0  0  0  0  0  0  0
  -37.2055   57.8386   63.9115 P   0  0  0  0  0  0  0  0  0  0  0  0
  -36.8852   57.4226   65.2919 O   0  0  0  0  0  0  0  0  0  0  0  0
  -38.5016   57.4458   63.3242 O   0  0  0  0  0  0  0  0  0  0  0  0
  -39.2228   57.7712   63.8854 H   0  0  0  0  0  0  0  0  0  0  0  0
  -36.0690   57.2814   62.9550 O   0  0  0  0  0  0  0  0  0  0  0  0
  -35.1070   58.1944   62.3765 C   0  0  0  0  0  0  0  0  0  0  0  0
  -33.7595   57.7731   62.9171 C   0  0  0  0  0  0  0  0  0  0  0  0
  -33.1091   58.7203   63.9059 N   0  0  0  0  0  0  0  0  0  0  0  0
  -33.2172   58.1988   65.3028 C   0  0  0  0  0  0  0  0  0  0  0  0
  -33.7838   60.0529   63.8399 C   0  0  0  0  0  0  0  0  0  0  0  0
  -31.6608   58.8826   63.5663 C   0  0  0  0  0  0  0  0  0  0  0  0
  -43.2758   60.2078   64.5360 C   0  0  0  0  0  0  0  0  0  0  0  0
  -43.3444   59.2910   65.7427 C   0  0  0  0  0  0  0  0  0  0  0  0
  -43.5202   57.8354   65.3676 C   0  0  0  0  0  0  0  0  0  0  0  0
  -44.9083   57.4741   64.8940 C   0  0  0  0  0  0  0  0  0  0  0  0
  -45.9999   57.8415   65.8666 C   0  0  0  0  0  0  0  0  0  0  0  0
  -47.1037   58.6331   65.2183 C   0  0  0  0  0  0  0  0  0  0  0  0
  -48.2508   57.8244   64.6888 C   0  0  0  0  0  0  0  0  0  0  0  0
  -49.5061   58.0440   65.4216 C   0  0  0  0  0  0  0  0  0  0  0  0
  -50.3719   59.0215   65.2679 C   0  0  0  0  0  0  0  0  0  0  0  0
  -50.3185   60.1453   64.2990 C   0  0  0  0  0  0  0  0  0  0  0  0
  -51.2835   60.0503   63.1350 C   0  0  0  0  0  0  0  0  0  0  0  0
  -50.5927   59.7707   61.8286 C   0  0  0  0  0  0  0  0  0  0  0  0
  -49.9048   58.4317   61.7542 C   0  0  0  0  0  0  0  0  0  0  0  0
  -50.7229   57.3979   61.0122 C   0  0  0  0  0  0  0  0  0  0  0  0
  -49.9426   56.5404   60.0553 C   0  0  0  0  0  0  0  0  0  0  0  0
  -49.5805   57.2422   58.8082 C   0  0  0  0  0  0  0  0  0  0  0  0
  -48.1718   57.0949   58.4475 C   0  0  0  0  0  0  0  0  0  0  0  0
 17 16  1  0  0  0
 17 18  1  0  0  0
 17 19  1  0  0  0
 17 20  1  0  0  0
  5  6  1  0  0  0
  5  8  1  0  0  0
  5  4  1  0  0  0
 10  9  1  0  0  0
 10 11  2  0  0  0
 10 14  1  0  0  0
 10 12  1  0  0  0
  8  9  1  0  0  0
 15 16  1  0  0  0
 15 14  1  0  0  0
  3  4  1  0  0  0
  3  2  1  0  0  0
  1  2  2  0  0  0
  2 21  1  0  0  0
 21 22  1  0  0  0
 22 23  1  0  0  0
 23 24  1  0  0  0
 24 25  1  0  0  0
 25 26  1  0  0  0
 26 27  1  0  0  0
 27 28  1  0  0  0
 28 29  2  0  0  0
 29 30  1  0  0  0
 30 31  1  0  0  0
 31 32  1  0  0  0
 32 33  1  0  0  0
 33 34  1  0  0  0
 34 35  1  0  0  0
 35 36  1  0  0  0
 36 37  1  0  0  0
  6  7  1  0  0  0
 12 13  1  0  0  0
M  CHG 1  11  -1
M  END
> <minimizedAffinity>
-7.68110

$$$$



 37 36  0  0  0  0  0  0  0  0999 V2000
  -42.6317   60.9310   63.8188 O   0  0  0  0  0  0  0  0  0  0  0  0
  -42.6969   60.0615   64.6329 C   0  0  0  0  0  0  0  0  0  0  0  0
  -41.6318   59.4907   65.1955 O   0  0  0  0  0  0  0  0  0  0  0  0
  -40.9548   60.2246   66.2400 C   0  0  0  0  0  0  0  0  0  0  0  0
  -39.8281   60.9903   65.5853 C   0  0  0  0  0  0  0  0  0  0  0  0
  -39.9420   62.3757   65.9104 O   0  0  0  0  0  0  0  0  0  0  0  0
  -39.8374   62.4929   66.8676 H   0  0  0  0  0  0  0  0  0  0  0  0
  -38.4404   60.5270   65.9570 C   0  0  0  0  0  0  0  0  0  0  0  0
  -37.5447   61.6543   65.8815 O   0  0  0  0  0  0  0  0  0  0  0  0
  -36.4935   61.7454   64.6915 P   0  0  0  0  0  0  0  0  0  0  0  0
  -36.5021   60.4375   64.0055 O   0  0  0  0  0  0  0  0  0  0  0  0
  -36.8216   62.9626   63.9237 O   0  0  0  0  0  0  0  0  0  0  0  0
  -37.7001   62.8659   63.5240 H   0  0  0  0  0  0  0  0  0  0  0  0
  -35.0524   61.9608   65.3190 O   0  0  0  0  0  0  0  0  0  0  0  0
  -34.5569   63.3033   65.5335 C   0  0  0  0  0  0  0  0  0  0  0  0
  -33.2577   63.3926   64.7656 C   0  0  0  0  0  0  0  0  0  0  0  0
  -32.9593   64.7254   64.1080 N   0  0  0  0  0  0  0  0  0  0  0  0
  -32.4030   65.7008   65.0949 C   0  0  0  0  0  0  0  0  0  0  0  0
  -34.2176   65.2924   63.5331 C   0  0  0  0  0  0  0  0  0  0  0  0
  -31.9594   64.5308   63.0117 C   0  0  0  0  0  0  0  0  0  0  0  0
  -43.9721   59.4843   65.1544 C   0  0  0  0  0  0  0  0  0  0  0  0
  -43.9751   57.9673   65.1605 C   0  0  0  0  0  0  0  0  0  0  0  0
  -45.3681   57.3811   65.2402 C   0  0  0  0  0  0  0  0  0  0  0  0
  -46.4704   58.3280   64.8276 C   0  0  0  0  0  0  0  0  0  0  0  0
  -47.5178   58.5450   65.8897 C   0  0  0  0  0  0  0  0  0  0  0  0
  -48.1114   59.9271   65.8366 C   0  0  0  0  0  0  0  0  0  0  0  0
  -48.4460   60.4320   64.4642 C   0  0  0  0  0  0  0  0  0  0  0  0
  -49.8903   60.4685   64.1927 C   0  0  0  0  0  0  0  0  0  0  0  0
  -50.5086   60.1920   63.0658 C   0  0  0  0  0  0  0  0  0  0  0  0
  -49.9112   59.7492   61.7807 C   0  0  0  0  0  0  0  0  0  0  0  0
  -50.3070   58.3611   61.3204 C   0  0  0  0  0  0  0  0  0  0  0  0
  -49.4399   57.8500   60.2027 C   0  0  0  0  0  0  0  0  0  0  0  0
  -49.5958   56.3804   59.9068 C   0  0  0  0  0  0  0  0  0  0  0  0
  -48.2894   55.7234   59.5190 C   0  0  0  0  0  0  0  0  0  0  0  0
  -47.4031   56.5516   58.6310 C   0  0  0  0  0  0  0  0  0  0  0  0
  -47.8288   56.5470   57.2175 C   0  0  0  0  0  0  0  0  0  0  0  0
  -47.2819   55.4295   56.4505 C   0  0  0  0  0  0  0  0  0  0  0  0
 17 16  1  0  0  0
 17 18  1  0  0  0
 17 19  1  0  0  0
 17 20  1  0  0  0
  5  6  1  0  0  0
  5  8  1  0  0  0
  5  4  1  0  0  0
 10  9  1  0  0  0
 10 11  2  0  0  0
 10 14  1  0  0  0
 10 12  1  0  0  0
  8  9  1  0  0  0
 15 16  1  0  0  0
 15 14  1  0  0  0
  3  4  1  0  0  0
  3  2  1  0  0  0
  1  2  2  0  0  0
  2 21  1  0  0  0
 21 22  1  0  0  0
 22 23  1  0  0  0
 23 24  1  0  0  0
 24 25  1  0  0  0
 25 26  1  0  0  0
 26 27  1  0  0  0
 27 28  1  0  0  0
 28 29  2  0  0  0
 29 30  1  0  0  0
 30 31  1  0  0  0
 31 32  1  0  0  0
 32 33  1  0  0  0
 33 34  1  0  0  0
 34 35  1  0  0  0
 35 36  1  0  0  0
 36 37  1  0  0  0
  6  7  1  0  0  0
 12 13  1  0  0  0
M  CHG 1  11  -1
M  END
> <minimizedAffinity>
-7.49283

$$$$



 37 36  0  0  0  0  0  0  0  0999 V2000
  -42.3952   61.0730   64.2464 O   0  0  0  0  0  0  0  0  0  0  0  0
  -41.5369   60.3091   64.5672 C   0  0  0  0  0  0  0  0  0  0  0  0
  -40.4222   60.1083   63.8644 O   0  0  0  0  0  0  0  0  0  0  0  0
  -39.4520   61.1786   63.8312 C   0  0  0  0  0  0  0  0  0  0  0  0
  -38.5138   60.8912   62.6816 C   0  0  0  0  0  0  0  0  0  0  0  0
  -37.1763   61.2068   63.0683 O   0  0  0  0  0  0  0  0  0  0  0  0
  -36.9058   60.6283   63.7984 H   0  0  0  0  0  0  0  0  0  0  0  0
  -38.5398   59.4691   62.1762 C   0  0  0  0  0  0  0  0  0  0  0  0
  -37.5335   58.7135   62.8799 O   0  0  0  0  0  0  0  0  0  0  0  0
  -36.6250   57.6799   62.0825 P   0  0  0  0  0  0  0  0  0  0  0  0
  -37.4309   56.4583   61.8846 O   0  0  0  0  0  0  0  0  0  0  0  0
  -36.0999   58.3944   60.9023 O   0  0  0  0  0  0  0  0  0  0  0  0
  -36.8352   58.6398   60.3193 H   0  0  0  0  0  0  0  0  0  0  0  0
  -35.3826   57.3056   62.9954 O   0  0  0  0  0  0  0  0  0  0  0  0
  -34.9715   58.2053   64.0514 C   0  0  0  0  0  0  0  0  0  0  0  0
  -34.2062   59.3184   63.3724 C   0  0  0  0  0  0  0  0  0  0  0  0
  -32.7067   59.1277   63.2597 N   0  0  0  0  0  0  0  0  0  0  0  0
  -32.1760   58.3359   64.4113 C   0  0  0  0  0  0  0  0  0  0  0  0
  -32.0324   60.4620   63.2462 C   0  0  0  0  0  0  0  0  0  0  0  0
  -32.3878   58.4003   61.9914 C   0  0  0  0  0  0  0  0  0  0  0  0
  -41.5696   59.4693   65.8019 C   0  0  0  0  0  0  0  0  0  0  0  0
  -41.8779   58.0115   65.5169 C   0  0  0  0  0  0  0  0  0  0  0  0
  -43.2869   57.6201   65.9070 C   0  0  0  0  0  0  0  0  0  0  0  0
  -44.3710   58.3144   65.1168 C   0  0  0  0  0  0  0  0  0  0  0  0
  -45.0949   59.3889   65.8873 C   0  0  0  0  0  0  0  0  0  0  0  0
  -46.1549   60.0703   65.0642 C   0  0  0  0  0  0  0  0  0  0  0  0
  -47.5493   59.9831   65.6103 C   0  0  0  0  0  0  0  0  0  0  0  0
  -47.9952   58.6033   65.8521 C   0  0  0  0  0  0  0  0  0  0  0  0
  -48.8466   57.8929   65.1456 C   0  0  0  0  0  0  0  0  0  0  0  0
  -49.5618   58.2911   63.9069 C   0  0  0  0  0  0  0  0  0  0  0  0
  -50.5916   59.3901   64.0720 C   0  0  0  0  0  0  0  0  0  0  0  0
  -50.7818   60.2013   62.8198 C   0  0  0  0  0  0  0  0  0  0  0  0
  -49.5167   60.4703   62.0458 C   0  0  0  0  0  0  0  0  0  0  0  0
  -49.6159   60.0358   60.6001 C   0  0  0  0  0  0  0  0  0  0  0  0
  -49.2635   58.5968   60.3456 C   0  0  0  0  0  0  0  0  0  0  0  0
  -50.3832   57.8141   59.7864 C   0  0  0  0  0  0  0  0  0  0  0  0
  -51.1028   57.0322   60.7899 C   0  0  0  0  0  0  0  0  0  0  0  0
 17 16  1  0  0  0
 17 18  1  0  0  0
 17 19  1  0  0  0
 17 20  1  0  0  0
  5  6  1  0  0  0
  5  8  1  0  0  0
  5  4  1  0  0  0
 10  9  1  0  0  0
 10 11  2  0  0  0
 10 14  1  0  0  0
 10 12  1  0  0  0
  8  9  1  0  0  0
 15 16  1  0  0  0
 15 14  1  0  0  0
  3  4  1  0  0  0
  3  2  1  0  0  0
  1  2  2  0  0  0
  2 21  1  0  0  0
 21 22  1  0  0  0
 22 23  1  0  0  0
 23 24  1  0  0  0
 24 25  1  0  0  0
 25 26  1  0  0  0
 26 27  1  0  0  0
 27 28  1  0  0  0
 28 29  2  0  0  0
 29 30  1  0  0  0
 30 31  1  0  0  0
 31 32  1  0  0  0
 32 33  1  0  0  0
 33 34  1  0  0  0
 34 35  1  0  0  0
 35 36  1  0  0  0
 36 37  1  0  0  0
  6  7  1  0  0  0
 12 13  1  0  0  0
M  CHG 1  11  -1
M  END
> <minimizedAffinity>
-7.29139

$$$$



 37 36  0  0  0  0  0  0  0  0999 V2000
  -42.3172   60.9157   64.2934 O   0  0  0  0  0  0  0  0  0  0  0  0
  -41.6365   60.0402   64.7328 C   0  0  0  0  0  0  0  0  0  0  0  0
  -40.4546   59.6930   64.2236 O   0  0  0  0  0  0  0  0  0  0  0  0
  -40.0659   60.2940   62.9683 C   0  0  0  0  0  0  0  0  0  0  0  0
  -38.7882   59.6165   62.5291 C   0  0  0  0  0  0  0  0  0  0  0  0
  -37.8393   60.6046   62.1274 O   0  0  0  0  0  0  0  0  0  0  0  0
  -37.6107   61.1614   62.8881 H   0  0  0  0  0  0  0  0  0  0  0  0
  -38.1435   58.7330   63.5694 C   0  0  0  0  0  0  0  0  0  0  0  0
  -37.3714   59.5622   64.4610 O   0  0  0  0  0  0  0  0  0  0  0  0
  -35.8059   59.3201   64.6023 P   0  0  0  0  0  0  0  0  0  0  0  0
  -35.6236   57.9345   65.0797 O   0  0  0  0  0  0  0  0  0  0  0  0
  -35.1934   59.7263   63.3221 O   0  0  0  0  0  0  0  0  0  0  0  0
  -35.5110   59.1456   62.6131 H   0  0  0  0  0  0  0  0  0  0  0  0
  -35.2518   60.3009   65.7195 O   0  0  0  0  0  0  0  0  0  0  0  0
  -35.9978   61.4925   66.0618 C   0  0  0  0  0  0  0  0  0  0  0  0
  -35.4176   62.6019   65.2142 C   0  0  0  0  0  0  0  0  0  0  0  0
  -34.5999   63.6465   65.9475 N   0  0  0  0  0  0  0  0  0  0  0  0
  -35.1160   63.8591   67.3344 C   0  0  0  0  0  0  0  0  0  0  0  0
  -34.6679   64.9444   65.2083 C   0  0  0  0  0  0  0  0  0  0  0  0
  -33.1741   63.1996   66.0307 C   0  0  0  0  0  0  0  0  0  0  0  0
  -41.9926   59.2059   65.9196 C   0  0  0  0  0  0  0  0  0  0  0  0
  -42.4053   57.7944   65.5471 C   0  0  0  0  0  0  0  0  0  0  0  0
  -43.8736   57.5248   65.7958 C   0  0  0  0  0  0  0  0  0  0  0  0
  -44.8142   58.3786   64.9785 C   0  0  0  0  0  0  0  0  0  0  0  0
  -45.4428   59.5082   65.7539 C   0  0  0  0  0  0  0  0  0  0  0  0
  -46.4915   60.2373   64.9575 C   0  0  0  0  0  0  0  0  0  0  0  0
  -47.8721   60.2214   65.5440 C   0  0  0  0  0  0  0  0  0  0  0  0
  -48.3528   58.8701   65.8663 C   0  0  0  0  0  0  0  0  0  0  0  0
  -49.2031   58.1311   65.1884 C   0  0  0  0  0  0  0  0  0  0  0  0
  -49.8815   58.4596   63.9092 C   0  0  0  0  0  0  0  0  0  0  0  0
  -50.7958   59.6671   63.9461 C   0  0  0  0  0  0  0  0  0  0  0  0
  -50.8406   60.4026   62.6350 C   0  0  0  0  0  0  0  0  0  0  0  0
  -49.5145   60.5072   61.9262 C   0  0  0  0  0  0  0  0  0  0  0  0
  -49.5700   59.9829   60.5082 C   0  0  0  0  0  0  0  0  0  0  0  0
  -49.2636   58.5185   60.3620 C   0  0  0  0  0  0  0  0  0  0  0  0
  -50.3946   57.7391   59.8211 C   0  0  0  0  0  0  0  0  0  0  0  0
  -51.1102   56.9721   60.8389 C   0  0  0  0  0  0  0  0  0  0  0  0
 17 16  1  0  0  0
 17 18  1  0  0  0
 17 19  1  0  0  0
 17 20  1  0  0  0
  5  6  1  0  0  0
  5  8  1  0  0  0
  5  4  1  0  0  0
 10  9  1  0  0  0
 10 11  2  0  0  0
 10 14  1  0  0  0
 10 12  1  0  0  0
  8  9  1  0  0  0
 15 16  1  0  0  0
 15 14  1  0  0  0
  3  4  1  0  0  0
  3  2  1  0  0  0
  1  2  2  0  0  0
  2 21  1  0  0  0
 21 22  1  0  0  0
 22 23  1  0  0  0
 23 24  1  0  0  0
 24 25  1  0  0  0
 25 26  1  0  0  0
 26 27  1  0  0  0
 27 28  1  0  0  0
 28 29  2  0  0  0
 29 30  1  0  0  0
 30 31  1  0  0  0
 31 32  1  0  0  0
 32 33  1  0  0  0
 33 34  1  0  0  0
 34 35  1  0  0  0
 35 36  1  0  0  0
 36 37  1  0  0  0
  6  7  1  0  0  0
 12 13  1  0  0  0
M  CHG 1  11  -1
M  END
> <minimizedAffinity>
-7.08775

$$$$



 37 36  0  0  0  0  0  0  0  0999 V2000
  -41.8867   60.9976   64.3796 O   0  0  0  0  0  0  0  0  0  0  0  0
  -41.1390   60.1162   64.6748 C   0  0  0  0  0  0  0  0  0  0  0  0
  -40.0179   59.8403   64.0086 O   0  0  0  0  0  0  0  0  0  0  0  0
  -39.6304   60.7447   62.9503 C   0  0  0  0  0  0  0  0  0  0  0  0
  -38.5741   60.0406   62.1299 C   0  0  0  0  0  0  0  0  0  0  0  0
  -37.6205   60.9945   61.6621 O   0  0  0  0  0  0  0  0  0  0  0  0
  -37.1636   61.3930   62.4193 H   0  0  0  0  0  0  0  0  0  0  0  0
  -37.8328   58.9412   62.8511 C   0  0  0  0  0  0  0  0  0  0  0  0
  -36.4963   58.8615   62.3162 O   0  0  0  0  0  0  0  0  0  0  0  0
  -35.3608   58.1170   63.1443 P   0  0  0  0  0  0  0  0  0  0  0  0
  -35.9666   56.8927   63.7056 O   0  0  0  0  0  0  0  0  0  0  0  0
  -34.1906   57.9968   62.2526 O   0  0  0  0  0  0  0  0  0  0  0  0
  -34.4153   57.4291   61.4989 H   0  0  0  0  0  0  0  0  0  0  0  0
  -34.9353   59.0524   64.3530 O   0  0  0  0  0  0  0  0  0  0  0  0
  -34.3129   60.3311   64.0858 C   0  0  0  0  0  0  0  0  0  0  0  0
  -34.4629   61.1379   65.3555 C   0  0  0  0  0  0  0  0  0  0  0  0
  -35.3818   62.3410   65.2794 N   0  0  0  0  0  0  0  0  0  0  0  0
  -35.1847   63.0897   64.0005 C   0  0  0  0  0  0  0  0  0  0  0  0
  -35.0953   63.2623   66.4214 C   0  0  0  0  0  0  0  0  0  0  0  0
  -36.8065   61.8892   65.3547 C   0  0  0  0  0  0  0  0  0  0  0  0
  -41.3332   59.1943   65.8338 C   0  0  0  0  0  0  0  0  0  0  0  0
  -42.1364   57.9577   65.4771 C   0  0  0  0  0  0  0  0  0  0  0  0
  -43.6115   58.1051   65.7817 C   0  0  0  0  0  0  0  0  0  0  0  0
  -44.3581   59.0166   64.8364 C   0  0  0  0  0  0  0  0  0  0  0  0
  -45.0068   60.1975   65.5122 C   0  0  0  0  0  0  0  0  0  0  0  0
  -46.2355   60.6721   64.7839 C   0  0  0  0  0  0  0  0  0  0  0  0
  -47.5404   60.3778   65.4627 C   0  0  0  0  0  0  0  0  0  0  0  0
  -47.5003   59.1745   66.3062 C   0  0  0  0  0  0  0  0  0  0  0  0
  -47.6587   57.9226   65.9372 C   0  0  0  0  0  0  0  0  0  0  0  0
  -47.8968   57.3964   64.5694 C   0  0  0  0  0  0  0  0  0  0  0  0
  -49.2000   57.8210   63.9240 C   0  0  0  0  0  0  0  0  0  0  0  0
  -49.3026   57.3936   62.4856 C   0  0  0  0  0  0  0  0  0  0  0  0
  -49.0795   58.4973   61.4836 C   0  0  0  0  0  0  0  0  0  0  0  0
  -49.4500   59.8597   62.0268 C   0  0  0  0  0  0  0  0  0  0  0  0
  -50.8884   60.2501   61.8303 C   0  0  0  0  0  0  0  0  0  0  0  0
  -51.7019   60.1075   63.0539 C   0  0  0  0  0  0  0  0  0  0  0  0
  -51.0069   60.5366   64.2660 C   0  0  0  0  0  0  0  0  0  0  0  0
 17 16  1  0  0  0
 17 18  1  0  0  0
 17 19  1  0  0  0
 17 20  1  0  0  0
  5  6  1  0  0  0
  5  8  1  0  0  0
  5  4  1  0  0  0
 10  9  1  0  0  0
 10 11  2  0  0  0
 10 14  1  0  0  0
 10 12  1  0  0  0
  8  9  1  0  0  0
 15 16  1  0  0  0
 15 14  1  0  0  0
  3  4  1  0  0  0
  3  2  1  0  0  0
  1  2  2  0  0  0
  2 21  1  0  0  0
 21 22  1  0  0  0
 22 23  1  0  0  0
 23 24  1  0  0  0
 24 25  1  0  0  0
 25 26  1  0  0  0
 26 27  1  0  0  0
 27 28  1  0  0  0
 28 29  2  0  0  0
 29 30  1  0  0  0
 30 31  1  0  0  0
 31 32  1  0  0  0
 32 33  1  0  0  0
 33 34  1  0  0  0
 34 35  1  0  0  0
 35 36  1  0  0  0
 36 37  1  0  0  0
  6  7  1  0  0  0
 12 13  1  0  0  0
M  CHG 1  11  -1
M  END
> <minimizedAffinity>
-6.26144

$$$$
