


 19 18  0  0  0  0  0  0  0  0999 V2000
  -44.2782   57.4899   65.2879 C   0  0  0  0  0  0  0  0  0  0  0  0
  -43.5996   58.1281   66.4921 C   0  0  0  0  0  0  0  0  0  0  0  0
  -42.0840   58.0853   66.3963 C   0  0  0  0  0  0  0  0  0  0  0  0
  -41.5678   59.3296   65.6925 C   0  0  0  0  0  0  0  0  0  0  0  0
  -40.4401   58.9347   64.7562 C   0  0  0  0  0  0  0  0  0  0  0  0
  -39.0961   58.9208   65.4671 C   0  0  0  0  0  0  0  0  0  0  0  0
  -38.4211   60.2560   65.2744 C   0  0  0  0  0  0  0  0  0  0  0  0
  -37.4602   60.3622   64.4875 O   0  0  0  0  0  0  0  0  0  0  0  0
  -38.8034   61.2702   65.8958 O   0  0  0  0  0  0  0  0  0  0  0  0
  -39.5239   61.2105   66.4918 H   0  0  0  0  0  0  0  0  0  0  0  0
  -45.7780   57.5315   65.5423 C   0  0  0  0  0  0  0  0  0  0  0  0
  -46.0942   57.9693   66.9522 C   0  0  0  0  0  0  0  0  0  0  0  0
  -47.3337   58.7149   67.2226 C   0  0  0  0  0  0  0  0  0  0  0  0
  -48.1527   59.2170   66.0600 C   0  0  0  0  0  0  0  0  0  0  0  0
  -49.4473   58.4222   65.9284 C   0  0  0  0  0  0  0  0  0  0  0  0
  -50.6380   59.3693   65.7815 C   0  0  0  0  0  0  0  0  0  0  0  0
  -50.5184   60.2385   64.5306 C   0  0  0  0  0  0  0  0  0  0  0  0
  -51.5609   59.8643   63.4739 C   0  0  0  0  0  0  0  0  0  0  0  0
  -51.1335   58.6804   62.6104 C   0  0  0  0  0  0  0  0  0  0  0  0
  7  8  2  0  0  0
  7  6  1  0  0  0
  7  9  1  0  0  0
  6  5  1  0  0  0
  5  4  1  0  0  0
  4  3  1  0  0  0
  3  2  1  0  0  0
  2  1  1  0  0  0
  1 11  1  0  0  0
 11 12  1  0  0  0
 12 13  2  0  0  0
 13 14  1  0  0  0
 14 15  1  0  0  0
 15 16  1  0  0  0
 16 17  1  0  0  0
 17 18  1  0  0  0
 18 19  1  0  0  0
  9 10  1  0  0  0
M  END
> <minimizedAffinity>
-6.50816

> <CNNscore>
0.7836076617

> <CNNaffinity>
6.2405519485

> <CNN_VS>
4.8901443481

> <CNNaffinity_variance>
0.2508903742

$$$$



 19 18  0  0  0  0  0  0  0  0999 V2000
  -46.6464   58.6669   64.5870 C   0  0  0  0  0  0  0  0  0  0  0  0
  -46.3764   57.5577   65.5943 C   0  0  0  0  0  0  0  0  0  0  0  0
  -44.8921   57.3266   65.8213 C   0  0  0  0  0  0  0  0  0  0  0  0
  -44.2683   58.5415   66.4884 C   0  0  0  0  0  0  0  0  0  0  0  0
  -42.7923   58.2731   66.7208 C   0  0  0  0  0  0  0  0  0  0  0  0
  -42.1097   59.4410   67.4148 C   0  0  0  0  0  0  0  0  0  0  0  0
  -41.1320   60.0804   66.4605 C   0  0  0  0  0  0  0  0  0  0  0  0
  -41.0413   61.3221   66.3982 O   0  0  0  0  0  0  0  0  0  0  0  0
  -40.4047   59.3872   65.7180 O   0  0  0  0  0  0  0  0  0  0  0  0
  -40.4582   58.4523   65.7501 H   0  0  0  0  0  0  0  0  0  0  0  0
  -48.0677   59.1554   64.8259 C   0  0  0  0  0  0  0  0  0  0  0  0
  -49.0908   58.1369   64.3836 C   0  0  0  0  0  0  0  0  0  0  0  0
  -49.7745   58.3052   63.0914 C   0  0  0  0  0  0  0  0  0  0  0  0
  -49.6033   59.6000   62.3374 C   0  0  0  0  0  0  0  0  0  0  0  0
  -49.5236   59.3441   60.8364 C   0  0  0  0  0  0  0  0  0  0  0  0
  -49.3098   57.8555   60.5631 C   0  0  0  0  0  0  0  0  0  0  0  0
  -47.9452   57.5867   59.9306 C   0  0  0  0  0  0  0  0  0  0  0  0
  -47.9729   57.7766   58.4118 C   0  0  0  0  0  0  0  0  0  0  0  0
  -46.6500   58.2943   57.8534 C   0  0  0  0  0  0  0  0  0  0  0  0
  7  8  2  0  0  0
  7  6  1  0  0  0
  7  9  1  0  0  0
  6  5  1  0  0  0
  5  4  1  0  0  0
  4  3  1  0  0  0
  3  2  1  0  0  0
  2  1  1  0  0  0
  1 11  1  0  0  0
 11 12  1  0  0  0
 12 13  2  0  0  0
 13 14  1  0  0  0
 14 15  1  0  0  0
 15 16  1  0  0  0
 16 17  1  0  0  0
 17 18  1  0  0  0
 18 19  1  0  0  0
  9 10  1  0  0  0
M  END
> <minimizedAffinity>
-6.78113

> <CNNscore>
0.7712988257

> <CNNaffinity>
6.1203236580

> <CNN_VS>
4.7205982208

> <CNNaffinity_variance>
0.0761413872

$$$$



 19 18  0  0  0  0  0  0  0  0999 V2000
  -45.3118   57.5908   66.6098 C   0  0  0  0  0  0  0  0  0  0  0  0
  -44.7338   57.3852   65.2164 C   0  0  0  0  0  0  0  0  0  0  0  0
  -43.2598   57.0182   65.2463 C   0  0  0  0  0  0  0  0  0  0  0  0
  -42.6008   57.5957   66.4882 C   0  0  0  0  0  0  0  0  0  0  0  0
  -41.4956   58.5458   66.0635 C   0  0  0  0  0  0  0  0  0  0  0  0
  -41.7313   59.9540   66.5862 C   0  0  0  0  0  0  0  0  0  0  0  0
  -40.7664   60.8989   65.9141 C   0  0  0  0  0  0  0  0  0  0  0  0
  -39.5528   60.8567   66.1955 O   0  0  0  0  0  0  0  0  0  0  0  0
  -41.1595   61.7366   65.0748 O   0  0  0  0  0  0  0  0  0  0  0  0
  -42.0680   61.7838   64.8500 H   0  0  0  0  0  0  0  0  0  0  0  0
  -46.5064   58.5228   66.4682 C   0  0  0  0  0  0  0  0  0  0  0  0
  -46.7093   58.9586   65.0368 C   0  0  0  0  0  0  0  0  0  0  0  0
  -47.9348   59.6820   64.6625 C   0  0  0  0  0  0  0  0  0  0  0  0
  -49.0592   59.7810   65.6627 C   0  0  0  0  0  0  0  0  0  0  0  0
  -50.3040   59.0665   65.1481 C   0  0  0  0  0  0  0  0  0  0  0  0
  -51.2319   60.0579   64.4461 C   0  0  0  0  0  0  0  0  0  0  0  0
  -51.5475   59.6221   63.0161 C   0  0  0  0  0  0  0  0  0  0  0  0
  -50.6346   58.4843   62.5517 C   0  0  0  0  0  0  0  0  0  0  0  0
  -51.2952   57.5769   61.5172 C   0  0  0  0  0  0  0  0  0  0  0  0
  7  8  2  0  0  0
  7  6  1  0  0  0
  7  9  1  0  0  0
  6  5  1  0  0  0
  5  4  1  0  0  0
  4  3  1  0  0  0
  3  2  1  0  0  0
  2  1  1  0  0  0
  1 11  1  0  0  0
 11 12  1  0  0  0
 12 13  2  0  0  0
 13 14  1  0  0  0
 14 15  1  0  0  0
 15 16  1  0  0  0
 16 17  1  0  0  0
 17 18  1  0  0  0
 18 19  1  0  0  0
  9 10  1  0  0  0
M  END
> <minimizedAffinity>
-6.98607

> <CNNscore>
0.7698107362

> <CNNaffinity>
6.1327843666

> <CNN_VS>
4.7210831642

> <CNNaffinity_variance>
0.0876689330

$$$$



 19 18  0  0  0  0  0  0  0  0999 V2000
  -49.2107   59.0713   66.1704 C   0  0  0  0  0  0  0  0  0  0  0  0
  -50.2809   58.6699   65.1648 C   0  0  0  0  0  0  0  0  0  0  0  0
  -51.0915   59.8570   64.6728 C   0  0  0  0  0  0  0  0  0  0  0  0
  -51.4584   59.6710   63.2096 C   0  0  0  0  0  0  0  0  0  0  0  0
  -50.6750   58.4974   62.6499 C   0  0  0  0  0  0  0  0  0  0  0  0
  -49.9290   58.8724   61.3792 C   0  0  0  0  0  0  0  0  0  0  0  0
  -50.0233   57.7325   60.3958 C   0  0  0  0  0  0  0  0  0  0  0  0
  -50.2135   56.5700   60.8036 O   0  0  0  0  0  0  0  0  0  0  0  0
  -49.9093   57.9267   59.1669 O   0  0  0  0  0  0  0  0  0  0  0  0
  -49.7660   58.7934   58.8409 H   0  0  0  0  0  0  0  0  0  0  0  0
  -47.8933   58.4856   65.6833 C   0  0  0  0  0  0  0  0  0  0  0  0
  -46.9058   58.3147   66.8126 C   0  0  0  0  0  0  0  0  0  0  0  0
  -45.5191   57.9229   66.5143 C   0  0  0  0  0  0  0  0  0  0  0  0
  -45.1680   57.4874   65.1138 C   0  0  0  0  0  0  0  0  0  0  0  0
  -43.9196   58.2105   64.6204 C   0  0  0  0  0  0  0  0  0  0  0  0
  -42.6681   57.5918   65.2427 C   0  0  0  0  0  0  0  0  0  0  0  0
  -42.3658   56.2143   64.6547 C   0  0  0  0  0  0  0  0  0  0  0  0
  -42.1822   56.2701   63.1359 C   0  0  0  0  0  0  0  0  0  0  0  0
  -40.7153   56.3077   62.7156 C   0  0  0  0  0  0  0  0  0  0  0  0
  7  8  2  0  0  0
  7  6  1  0  0  0
  7  9  1  0  0  0
  6  5  1  0  0  0
  5  4  1  0  0  0
  4  3  1  0  0  0
  3  2  1  0  0  0
  2  1  1  0  0  0
  1 11  1  0  0  0
 11 12  1  0  0  0
 12 13  2  0  0  0
 13 14  1  0  0  0
 14 15  1  0  0  0
 15 16  1  0  0  0
 16 17  1  0  0  0
 17 18  1  0  0  0
 18 19  1  0  0  0
  9 10  1  0  0  0
M  END
> <minimizedAffinity>
-6.65790

> <CNNscore>
0.7239465117

> <CNNaffinity>
6.4356002808

> <CNN_VS>
4.6590304375

> <CNNaffinity_variance>
0.6584986448

$$$$



 19 18  0  0  0  0  0  0  0  0999 V2000
  -46.0454   58.0563   64.9377 C   0  0  0  0  0  0  0  0  0  0  0  0
  -45.4787   58.1064   66.3499 C   0  0  0  0  0  0  0  0  0  0  0  0
  -44.0133   57.7090   66.4032 C   0  0  0  0  0  0  0  0  0  0  0  0
  -43.3385   58.0150   65.0762 C   0  0  0  0  0  0  0  0  0  0  0  0
  -41.8964   58.4116   65.3361 C   0  0  0  0  0  0  0  0  0  0  0  0
  -41.7710   59.3158   66.5520 C   0  0  0  0  0  0  0  0  0  0  0  0
  -40.6884   60.3357   66.3002 C   0  0  0  0  0  0  0  0  0  0  0  0
  -40.9687   61.5500   66.2725 O   0  0  0  0  0  0  0  0  0  0  0  0
  -39.5032   59.9884   66.1117 O   0  0  0  0  0  0  0  0  0  0  0  0
  -39.2727   59.0804   66.1287 H   0  0  0  0  0  0  0  0  0  0  0  0
  -47.2199   59.0228   64.8898 C   0  0  0  0  0  0  0  0  0  0  0  0
  -48.0745   58.9265   66.1308 C   0  0  0  0  0  0  0  0  0  0  0  0
  -49.4049   59.5549   66.1494 C   0  0  0  0  0  0  0  0  0  0  0  0
  -49.7984   60.4663   65.0141 C   0  0  0  0  0  0  0  0  0  0  0  0
  -51.2920   60.3574   64.7272 C   0  0  0  0  0  0  0  0  0  0  0  0
  -51.5228   59.8725   63.2961 C   0  0  0  0  0  0  0  0  0  0  0  0
  -50.8165   58.5443   63.0280 C   0  0  0  0  0  0  0  0  0  0  0  0
  -49.9286   58.6115   61.7828 C   0  0  0  0  0  0  0  0  0  0  0  0
  -49.5993   60.0420   61.3641 C   0  0  0  0  0  0  0  0  0  0  0  0
  7  8  2  0  0  0
  7  6  1  0  0  0
  7  9  1  0  0  0
  6  5  1  0  0  0
  5  4  1  0  0  0
  4  3  1  0  0  0
  3  2  1  0  0  0
  2  1  1  0  0  0
  1 11  1  0  0  0
 11 12  1  0  0  0
 12 13  2  0  0  0
 13 14  1  0  0  0
 14 15  1  0  0  0
 15 16  1  0  0  0
 16 17  1  0  0  0
 17 18  1  0  0  0
 18 19  1  0  0  0
  9 10  1  0  0  0
M  END
> <minimizedAffinity>
-6.83812

> <CNNscore>
0.6880373955

> <CNNaffinity>
6.1109170914

> <CNN_VS>
4.2045392990

> <CNNaffinity_variance>
0.1322673410

$$$$



 19 18  0  0  0  0  0  0  0  0999 V2000
  -43.3821   57.2051   63.7594 C   0  0  0  0  0  0  0  0  0  0  0  0
  -42.0960   56.5545   64.2497 C   0  0  0  0  0  0  0  0  0  0  0  0
  -41.3279   55.8692   63.1322 C   0  0  0  0  0  0  0  0  0  0  0  0
  -41.7194   56.4603   61.7878 C   0  0  0  0  0  0  0  0  0  0  0  0
  -40.6987   57.5135   61.3960 C   0  0  0  0  0  0  0  0  0  0  0  0
  -39.3919   57.3412   62.1539 C   0  0  0  0  0  0  0  0  0  0  0  0
  -38.2515   57.8135   61.2868 C   0  0  0  0  0  0  0  0  0  0  0  0
  -37.0758   57.5391   61.5971 O   0  0  0  0  0  0  0  0  0  0  0  0
  -38.4588   58.4855   60.2542 O   0  0  0  0  0  0  0  0  0  0  0  0
  -39.3355   58.7020   60.0042 H   0  0  0  0  0  0  0  0  0  0  0  0
  -43.7938   58.2316   64.8046 C   0  0  0  0  0  0  0  0  0  0  0  0
  -44.2191   57.5751   66.0961 C   0  0  0  0  0  0  0  0  0  0  0  0
  -45.6352   57.6028   66.4953 C   0  0  0  0  0  0  0  0  0  0  0  0
  -46.5954   58.4714   65.7221 C   0  0  0  0  0  0  0  0  0  0  0  0
  -47.9243   57.7535   65.5129 C   0  0  0  0  0  0  0  0  0  0  0  0
  -48.7559   58.4759   64.4532 C   0  0  0  0  0  0  0  0  0  0  0  0
  -50.2080   58.6500   64.8955 C   0  0  0  0  0  0  0  0  0  0  0  0
  -50.7685   60.0153   64.4891 C   0  0  0  0  0  0  0  0  0  0  0  0
  -51.7587   59.9304   63.3306 C   0  0  0  0  0  0  0  0  0  0  0  0
  7  8  2  0  0  0
  7  6  1  0  0  0
  7  9  1  0  0  0
  6  5  1  0  0  0
  5  4  1  0  0  0
  4  3  1  0  0  0
  3  2  1  0  0  0
  2  1  1  0  0  0
  1 11  1  0  0  0
 11 12  1  0  0  0
 12 13  2  0  0  0
 13 14  1  0  0  0
 14 15  1  0  0  0
 15 16  1  0  0  0
 16 17  1  0  0  0
 17 18  1  0  0  0
 18 19  1  0  0  0
  9 10  1  0  0  0
M  END
> <minimizedAffinity>
-6.42208

> <CNNscore>
0.5984092951

> <CNNaffinity>
5.9173994064

> <CNN_VS>
3.5410268307

> <CNNaffinity_variance>
0.1696465313

$$$$



 19 18  0  0  0  0  0  0  0  0999 V2000
  -49.8722   59.5576   62.0089 C   0  0  0  0  0  0  0  0  0  0  0  0
  -49.1323   58.3072   61.5542 C   0  0  0  0  0  0  0  0  0  0  0  0
  -49.2360   58.0824   60.0553 C   0  0  0  0  0  0  0  0  0  0  0  0
  -47.9601   57.4438   59.5314 C   0  0  0  0  0  0  0  0  0  0  0  0
  -47.3367   58.3637   58.4972 C   0  0  0  0  0  0  0  0  0  0  0  0
  -46.3131   57.6363   57.6400 C   0  0  0  0  0  0  0  0  0  0  0  0
  -47.0245   56.6390   56.7598 C   0  0  0  0  0  0  0  0  0  0  0  0
  -47.9789   57.0049   56.0463 O   0  0  0  0  0  0  0  0  0  0  0  0
  -46.6791   55.4387   56.7314 O   0  0  0  0  0  0  0  0  0  0  0  0
  -45.9641   55.1443   57.2605 H   0  0  0  0  0  0  0  0  0  0  0  0
  -51.0343   59.1013   62.8789 C   0  0  0  0  0  0  0  0  0  0  0  0
  -51.4658   60.1780   63.8455 C   0  0  0  0  0  0  0  0  0  0  0  0
  -51.0638   60.0919   65.2584 C   0  0  0  0  0  0  0  0  0  0  0  0
  -50.4180   58.8241   65.7584 C   0  0  0  0  0  0  0  0  0  0  0  0
  -48.9364   59.0479   66.0406 C   0  0  0  0  0  0  0  0  0  0  0  0
  -48.0841   58.1654   65.1289 C   0  0  0  0  0  0  0  0  0  0  0  0
  -46.6628   58.7074   64.9846 C   0  0  0  0  0  0  0  0  0  0  0  0
  -45.6113   57.6164   65.2024 C   0  0  0  0  0  0  0  0  0  0  0  0
  -44.2481   57.9801   64.6197 C   0  0  0  0  0  0  0  0  0  0  0  0
  7  8  2  0  0  0
  7  6  1  0  0  0
  7  9  1  0  0  0
  6  5  1  0  0  0
  5  4  1  0  0  0
  4  3  1  0  0  0
  3  2  1  0  0  0
  2  1  1  0  0  0
  1 11  1  0  0  0
 11 12  1  0  0  0
 12 13  2  0  0  0
 13 14  1  0  0  0
 14 15  1  0  0  0
 15 16  1  0  0  0
 16 17  1  0  0  0
 17 18  1  0  0  0
 18 19  1  0  0  0
  9 10  1  0  0  0
M  END
> <minimizedAffinity>
-7.86028

> <CNNscore>
0.5832799077

> <CNNaffinity>
6.1832852364

> <CNN_VS>
3.6065859795

> <CNNaffinity_variance>
0.0741050541

$$$$



 19 18  0  0  0  0  0  0  0  0999 V2000
  -49.8930   58.8473   64.7008 C   0  0  0  0  0  0  0  0  0  0  0  0
  -48.6899   58.3073   65.4615 C   0  0  0  0  0  0  0  0  0  0  0  0
  -47.3904   58.4802   64.6936 C   0  0  0  0  0  0  0  0  0  0  0  0
  -46.2738   57.7028   65.3709 C   0  0  0  0  0  0  0  0  0  0  0  0
  -44.9462   58.1126   64.7594 C   0  0  0  0  0  0  0  0  0  0  0  0
  -43.7746   57.4268   65.4442 C   0  0  0  0  0  0  0  0  0  0  0  0
  -43.0052   56.6257   64.4236 C   0  0  0  0  0  0  0  0  0  0  0  0
  -42.6734   57.1474   63.3412 O   0  0  0  0  0  0  0  0  0  0  0  0
  -42.6922   55.4352   64.6374 O   0  0  0  0  0  0  0  0  0  0  0  0
  -42.9326   55.0254   65.4449 H   0  0  0  0  0  0  0  0  0  0  0  0
  -49.7211   58.4450   63.2432 C   0  0  0  0  0  0  0  0  0  0  0  0
  -51.0437   58.3984   62.5163 C   0  0  0  0  0  0  0  0  0  0  0  0
  -51.1892   57.5499   61.3229 C   0  0  0  0  0  0  0  0  0  0  0  0
  -49.9594   56.9163   60.7224 C   0  0  0  0  0  0  0  0  0  0  0  0
  -49.5988   57.5845   59.4001 C   0  0  0  0  0  0  0  0  0  0  0  0
  -48.2742   58.3362   59.5300 C   0  0  0  0  0  0  0  0  0  0  0  0
  -47.0968   57.4972   59.0356 C   0  0  0  0  0  0  0  0  0  0  0  0
  -46.6609   57.9013   57.6249 C   0  0  0  0  0  0  0  0  0  0  0  0
  -47.4350   57.1701   56.5313 C   0  0  0  0  0  0  0  0  0  0  0  0
  7  8  2  0  0  0
  7  6  1  0  0  0
  7  9  1  0  0  0
  6  5  1  0  0  0
  5  4  1  0  0  0
  4  3  1  0  0  0
  3  2  1  0  0  0
  2  1  1  0  0  0
  1 11  1  0  0  0
 11 12  1  0  0  0
 12 13  2  0  0  0
 13 14  1  0  0  0
 14 15  1  0  0  0
 15 16  1  0  0  0
 16 17  1  0  0  0
 17 18  1  0  0  0
 18 19  1  0  0  0
  9 10  1  0  0  0
M  END
> <minimizedAffinity>
-7.56710

> <CNNscore>
0.5758972764

> <CNNaffinity>
6.2684607506

> <CNN_VS>
3.6099894047

> <CNNaffinity_variance>
0.1152215153

$$$$



 19 18  0  0  0  0  0  0  0  0999 V2000
  -45.8491   57.5299   66.8800 C   0  0  0  0  0  0  0  0  0  0  0  0
  -46.8362   58.6853   66.9724 C   0  0  0  0  0  0  0  0  0  0  0  0
  -47.8066   58.7164   65.8039 C   0  0  0  0  0  0  0  0  0  0  0  0
  -48.8714   57.6459   65.9780 C   0  0  0  0  0  0  0  0  0  0  0  0
  -50.2414   58.2905   65.8684 C   0  0  0  0  0  0  0  0  0  0  0  0
  -50.2010   59.5618   65.0353 C   0  0  0  0  0  0  0  0  0  0  0  0
  -51.0265   59.3624   63.7886 C   0  0  0  0  0  0  0  0  0  0  0  0
  -51.9619   60.1438   63.5273 O   0  0  0  0  0  0  0  0  0  0  0  0
  -50.7955   58.4184   63.0035 O   0  0  0  0  0  0  0  0  0  0  0  0
  -50.0967   57.8204   63.1826 H   0  0  0  0  0  0  0  0  0  0  0  0
  -44.8707   57.8623   65.7628 C   0  0  0  0  0  0  0  0  0  0  0  0
  -43.4727   57.3921   66.0854 C   0  0  0  0  0  0  0  0  0  0  0  0
  -42.3239   57.9892   65.3860 C   0  0  0  0  0  0  0  0  0  0  0  0
  -42.5768   58.8978   64.2092 C   0  0  0  0  0  0  0  0  0  0  0  0
  -41.3940   58.8771   63.2472 C   0  0  0  0  0  0  0  0  0  0  0  0
  -41.4139   57.5983   62.4102 C   0  0  0  0  0  0  0  0  0  0  0  0
  -40.3028   57.5913   61.3614 C   0  0  0  0  0  0  0  0  0  0  0  0
  -40.5990   58.5554   60.2099 C   0  0  0  0  0  0  0  0  0  0  0  0
  -39.3647   59.3244   59.7461 C   0  0  0  0  0  0  0  0  0  0  0  0
  7  8  2  0  0  0
  7  6  1  0  0  0
  7  9  1  0  0  0
  6  5  1  0  0  0
  5  4  1  0  0  0
  4  3  1  0  0  0
  3  2  1  0  0  0
  2  1  1  0  0  0
  1 11  1  0  0  0
 11 12  1  0  0  0
 12 13  2  0  0  0
 13 14  1  0  0  0
 14 15  1  0  0  0
 15 16  1  0  0  0
 16 17  1  0  0  0
 17 18  1  0  0  0
 18 19  1  0  0  0
  9 10  1  0  0  0
M  END
> <minimizedAffinity>
-5.99557

> <CNNscore>
0.5709902644

> <CNNaffinity>
5.9224820137

> <CNN_VS>
3.3816795349

> <CNNaffinity_variance>
0.4552803934

$$$$
