


 19 18  0  0  0  0  0  0  0  0999 V2000
  -45.6747   58.9943   66.0283 C   0  0  0  0  0  0  0  0  0  0  0  0
  -44.5224   59.6177   65.2529 C   0  0  0  0  0  0  0  0  0  0  0  0
  -43.2803   59.8056   66.1074 C   0  0  0  0  0  0  0  0  0  0  0  0
  -42.3389   58.6256   65.9306 C   0  0  0  0  0  0  0  0  0  0  0  0
  -41.0435   59.1167   65.3098 C   0  0  0  0  0  0  0  0  0  0  0  0
  -41.1799   60.5296   64.7650 C   0  0  0  0  0  0  0  0  0  0  0  0
  -39.9243   61.3042   65.0795 C   0  0  0  0  0  0  0  0  0  0  0  0
  -38.8473   60.9968   64.5325 O   0  0  0  0  0  0  0  0  0  0  0  0
  -39.9366   62.2559   65.8889 O   0  0  0  0  0  0  0  0  0  0  0  0
  -40.7364   62.5022   66.3103 H   0  0  0  0  0  0  0  0  0  0  0  0
  -46.9069   59.0661   65.1382 C   0  0  0  0  0  0  0  0  0  0  0  0
  -47.9268   60.0428   65.6727 C   0  0  0  0  0  0  0  0  0  0  0  0
  -49.3605   59.7278   65.5696 C   0  0  0  0  0  0  0  0  0  0  0  0
  -49.7909   58.5447   64.7394 C   0  0  0  0  0  0  0  0  0  0  0  0
  -50.3984   59.0043   63.4185 C   0  0  0  0  0  0  0  0  0  0  0  0
  -49.7718   58.2399   62.2526 C   0  0  0  0  0  0  0  0  0  0  0  0
  -50.8335   57.6863   61.3034 C   0  0  0  0  0  0  0  0  0  0  0  0
  -50.2447   56.6756   60.3159 C   0  0  0  0  0  0  0  0  0  0  0  0
  -49.7331   57.3264   59.0334 C   0  0  0  0  0  0  0  0  0  0  0  0
  7  8  2  0  0  0
  7  6  1  0  0  0
  7  9  1  0  0  0
  6  5  1  0  0  0
  5  4  1  0  0  0
  4  3  1  0  0  0
  3  2  1  0  0  0
  2  1  1  0  0  0
  1 11  1  0  0  0
 11 12  1  0  0  0
 12 13  2  0  0  0
 13 14  1  0  0  0
 14 15  1  0  0  0
 15 16  1  0  0  0
 16 17  1  0  0  0
 17 18  1  0  0  0
 18 19  1  0  0  0
  9 10  1  0  0  0
M  END
> <minimizedAffinity>
-6.64275

> <CNNscore>
0.8824862838

> <CNNaffinity>
6.4396257401

> <CNN_VS>
5.6828813553

> <CNNaffinity_variance>
0.8117889166

$$$$



 19 18  0  0  0  0  0  0  0  0999 V2000
  -46.7930   60.0770   65.3026 C   0  0  0  0  0  0  0  0  0  0  0  0
  -46.2636   58.6507   65.2451 C   0  0  0  0  0  0  0  0  0  0  0  0
  -44.7987   58.5894   64.8470 C   0  0  0  0  0  0  0  0  0  0  0  0
  -44.1176   59.9143   65.1483 C   0  0  0  0  0  0  0  0  0  0  0  0
  -42.6796   59.8506   64.6660 C   0  0  0  0  0  0  0  0  0  0  0  0
  -41.7071   60.3408   65.7270 C   0  0  0  0  0  0  0  0  0  0  0  0
  -40.9373   61.5196   65.1853 C   0  0  0  0  0  0  0  0  0  0  0  0
  -41.0703   61.8577   63.9929 O   0  0  0  0  0  0  0  0  0  0  0  0
  -40.1559   62.1709   65.9106 O   0  0  0  0  0  0  0  0  0  0  0  0
  -40.0424   61.9323   66.8096 H   0  0  0  0  0  0  0  0  0  0  0  0
  -48.0369   60.1308   64.4276 C   0  0  0  0  0  0  0  0  0  0  0  0
  -49.1852   59.3655   65.0404 C   0  0  0  0  0  0  0  0  0  0  0  0
  -49.8338   58.2890   64.2749 C   0  0  0  0  0  0  0  0  0  0  0  0
  -49.4867   58.1176   62.8174 C   0  0  0  0  0  0  0  0  0  0  0  0
  -50.7176   58.3237   61.9414 C   0  0  0  0  0  0  0  0  0  0  0  0
  -50.7750   57.2567   60.8484 C   0  0  0  0  0  0  0  0  0  0  0  0
  -50.2651   57.7896   59.5103 C   0  0  0  0  0  0  0  0  0  0  0  0
  -49.1197   56.9384   58.9563 C   0  0  0  0  0  0  0  0  0  0  0  0
  -48.8154   55.7170   59.8198 C   0  0  0  0  0  0  0  0  0  0  0  0
  7  8  2  0  0  0
  7  6  1  0  0  0
  7  9  1  0  0  0
  6  5  1  0  0  0
  5  4  1  0  0  0
  4  3  1  0  0  0
  3  2  1  0  0  0
  2  1  1  0  0  0
  1 11  1  0  0  0
 11 12  1  0  0  0
 12 13  2  0  0  0
 13 14  1  0  0  0
 14 15  1  0  0  0
 15 16  1  0  0  0
 16 17  1  0  0  0
 17 18  1  0  0  0
 18 19  1  0  0  0
  9 10  1  0  0  0
M  END
> <minimizedAffinity>
-6.83293

> <CNNscore>
0.8449475765

> <CNNaffinity>
6.5335340500

> <CNN_VS>
5.5204939842

> <CNNaffinity_variance>
0.7972134352

$$$$



 19 18  0  0  0  0  0  0  0  0999 V2000
  -48.3700   57.7328   64.2266 C   0  0  0  0  0  0  0  0  0  0  0  0
  -48.0377   58.5503   65.4672 C   0  0  0  0  0  0  0  0  0  0  0  0
  -46.5429   58.6330   65.7263 C   0  0  0  0  0  0  0  0  0  0  0  0
  -45.9311   57.2417   65.7153 C   0  0  0  0  0  0  0  0  0  0  0  0
  -44.6999   57.2513   64.8274 C   0  0  0  0  0  0  0  0  0  0  0  0
  -43.4235   57.0632   65.6318 C   0  0  0  0  0  0  0  0  0  0  0  0
  -42.6630   58.3655   65.6643 C   0  0  0  0  0  0  0  0  0  0  0  0
  -41.7447   58.5321   66.4906 O   0  0  0  0  0  0  0  0  0  0  0  0
  -42.9374   59.2951   64.8760 O   0  0  0  0  0  0  0  0  0  0  0  0
  -43.6243   59.1891   64.2476 H   0  0  0  0  0  0  0  0  0  0  0  0
  -48.9159   58.6983   63.1847 C   0  0  0  0  0  0  0  0  0  0  0  0
  -50.3137   58.3242   62.7535 C   0  0  0  0  0  0  0  0  0  0  0  0
  -50.5150   57.5854   61.4969 C   0  0  0  0  0  0  0  0  0  0  0  0
  -49.3480   57.4088   60.5582 C   0  0  0  0  0  0  0  0  0  0  0  0
  -49.2241   55.9540   60.1185 C   0  0  0  0  0  0  0  0  0  0  0  0
  -48.1522   55.8165   59.0375 C   0  0  0  0  0  0  0  0  0  0  0  0
  -47.9713   57.1145   58.2518 C   0  0  0  0  0  0  0  0  0  0  0  0
  -47.1389   56.9031   56.9846 C   0  0  0  0  0  0  0  0  0  0  0  0
  -47.1156   55.4477   56.5248 C   0  0  0  0  0  0  0  0  0  0  0  0
  7  8  2  0  0  0
  7  6  1  0  0  0
  7  9  1  0  0  0
  6  5  1  0  0  0
  5  4  1  0  0  0
  4  3  1  0  0  0
  3  2  1  0  0  0
  2  1  1  0  0  0
  1 11  1  0  0  0
 11 12  1  0  0  0
 12 13  2  0  0  0
 13 14  1  0  0  0
 14 15  1  0  0  0
 15 16  1  0  0  0
 16 17  1  0  0  0
 17 18  1  0  0  0
 18 19  1  0  0  0
  9 10  1  0  0  0
M  END
> <minimizedAffinity>
-6.84906

> <CNNscore>
0.8174674511

> <CNNaffinity>
6.5619416237

> <CNN_VS>
5.3641738892

> <CNNaffinity_variance>
0.7008266449

$$$$



 19 18  0  0  0  0  0  0  0  0999 V2000
  -50.6614   59.7452   64.0083 C   0  0  0  0  0  0  0  0  0  0  0  0
  -49.6927   58.5758   64.1174 C   0  0  0  0  0  0  0  0  0  0  0  0
  -48.3467   58.9867   64.6899 C   0  0  0  0  0  0  0  0  0  0  0  0
  -47.8539   57.9389   65.6745 C   0  0  0  0  0  0  0  0  0  0  0  0
  -46.3817   58.1798   65.9554 C   0  0  0  0  0  0  0  0  0  0  0  0
  -45.5273   57.9513   64.7186 C   0  0  0  0  0  0  0  0  0  0  0  0
  -44.1785   57.4234   65.1400 C   0  0  0  0  0  0  0  0  0  0  0  0
  -43.2906   58.2113   65.5205 O   0  0  0  0  0  0  0  0  0  0  0  0
  -43.9246   56.2005   65.1124 O   0  0  0  0  0  0  0  0  0  0  0  0
  -44.5789   55.5924   64.8294 H   0  0  0  0  0  0  0  0  0  0  0  0
  -51.1484   59.7931   62.5674 C   0  0  0  0  0  0  0  0  0  0  0  0
  -50.0214   60.0835   61.6055 C   0  0  0  0  0  0  0  0  0  0  0  0
  -49.7136   59.1238   60.5334 C   0  0  0  0  0  0  0  0  0  0  0  0
  -50.3814   57.7717   60.5491 C   0  0  0  0  0  0  0  0  0  0  0  0
  -49.3473   56.6574   60.4313 C   0  0  0  0  0  0  0  0  0  0  0  0
  -48.5726   56.7897   59.1203 C   0  0  0  0  0  0  0  0  0  0  0  0
  -47.6039   55.6259   58.9157 C   0  0  0  0  0  0  0  0  0  0  0  0
  -47.1160   55.5376   57.4674 C   0  0  0  0  0  0  0  0  0  0  0  0
  -48.0758   56.1902   56.4760 C   0  0  0  0  0  0  0  0  0  0  0  0
  7  8  2  0  0  0
  7  6  1  0  0  0
  7  9  1  0  0  0
  6  5  1  0  0  0
  5  4  1  0  0  0
  4  3  1  0  0  0
  3  2  1  0  0  0
  2  1  1  0  0  0
  1 11  1  0  0  0
 11 12  1  0  0  0
 12 13  2  0  0  0
 13 14  1  0  0  0
 14 15  1  0  0  0
 15 16  1  0  0  0
 16 17  1  0  0  0
 17 18  1  0  0  0
 18 19  1  0  0  0
  9 10  1  0  0  0
M  END
> <minimizedAffinity>
-6.90450

> <CNNscore>
0.7333486676

> <CNNaffinity>
6.5243439674

> <CNN_VS>
4.7846188545

> <CNNaffinity_variance>
0.7158828974

$$$$



 19 18  0  0  0  0  0  0  0  0999 V2000
  -49.9833   58.1930   62.9339 C   0  0  0  0  0  0  0  0  0  0  0  0
  -49.8185   58.3072   61.4248 C   0  0  0  0  0  0  0  0  0  0  0  0
  -49.6021   56.9586   60.7594 C   0  0  0  0  0  0  0  0  0  0  0  0
  -49.2328   57.1485   59.2974 C   0  0  0  0  0  0  0  0  0  0  0  0
  -48.0156   56.2980   58.9816 C   0  0  0  0  0  0  0  0  0  0  0  0
  -47.1355   56.9446   57.9237 C   0  0  0  0  0  0  0  0  0  0  0  0
  -47.2659   56.1740   56.6335 C   0  0  0  0  0  0  0  0  0  0  0  0
  -47.8012   56.7044   55.6407 O   0  0  0  0  0  0  0  0  0  0  0  0
  -46.8491   55.0002   56.5358 O   0  0  0  0  0  0  0  0  0  0  0  0
  -46.4437   54.5842   57.2710 H   0  0  0  0  0  0  0  0  0  0  0  0
  -48.6510   58.5753   63.5622 C   0  0  0  0  0  0  0  0  0  0  0  0
  -48.4609   57.9232   64.9106 C   0  0  0  0  0  0  0  0  0  0  0  0
  -47.1011   57.7053   65.4290 C   0  0  0  0  0  0  0  0  0  0  0  0
  -45.9247   57.9350   64.5137 C   0  0  0  0  0  0  0  0  0  0  0  0
  -44.6372   58.0854   65.3166 C   0  0  0  0  0  0  0  0  0  0  0  0
  -44.0869   59.5044   65.1747 C   0  0  0  0  0  0  0  0  0  0  0  0
  -43.0202   59.8052   66.2265 C   0  0  0  0  0  0  0  0  0  0  0  0
  -41.9654   58.6984   66.3021 C   0  0  0  0  0  0  0  0  0  0  0  0
  -40.8739   58.8445   65.2450 C   0  0  0  0  0  0  0  0  0  0  0  0
  7  8  2  0  0  0
  7  6  1  0  0  0
  7  9  1  0  0  0
  6  5  1  0  0  0
  5  4  1  0  0  0
  4  3  1  0  0  0
  3  2  1  0  0  0
  2  1  1  0  0  0
  1 11  1  0  0  0
 11 12  1  0  0  0
 12 13  2  0  0  0
 13 14  1  0  0  0
 14 15  1  0  0  0
 15 16  1  0  0  0
 16 17  1  0  0  0
 17 18  1  0  0  0
 18 19  1  0  0  0
  9 10  1  0  0  0
M  END
> <minimizedAffinity>
-6.83252

> <CNNscore>
0.7130112648

> <CNNaffinity>
6.3999166489

> <CNN_VS>
4.5632128716

> <CNNaffinity_variance>
0.3816262782

$$$$



 19 18  0  0  0  0  0  0  0  0999 V2000
  -43.6322   58.8769   64.9582 C   0  0  0  0  0  0  0  0  0  0  0  0
  -42.6305   58.1019   65.8031 C   0  0  0  0  0  0  0  0  0  0  0  0
  -41.7179   59.0134   66.6058 C   0  0  0  0  0  0  0  0  0  0  0  0
  -42.1184   60.4657   66.4044 C   0  0  0  0  0  0  0  0  0  0  0  0
  -40.9044   61.2530   65.9453 C   0  0  0  0  0  0  0  0  0  0  0  0
  -39.7266   60.3429   65.6357 C   0  0  0  0  0  0  0  0  0  0  0  0
  -38.5302   61.1879   65.2748 C   0  0  0  0  0  0  0  0  0  0  0  0
  -37.6538   60.7362   64.5121 O   0  0  0  0  0  0  0  0  0  0  0  0
  -38.3920   62.3426   65.7313 O   0  0  0  0  0  0  0  0  0  0  0  0
  -39.0400   62.6998   66.3061 H   0  0  0  0  0  0  0  0  0  0  0  0
  -44.6816   57.8838   64.4807 C   0  0  0  0  0  0  0  0  0  0  0  0
  -45.5331   57.3784   65.6206 C   0  0  0  0  0  0  0  0  0  0  0  0
  -46.9670   57.7066   65.6596 C   0  0  0  0  0  0  0  0  0  0  0  0
  -47.5117   58.7192   64.6837 C   0  0  0  0  0  0  0  0  0  0  0  0
  -47.3544   60.1341   65.2298 C   0  0  0  0  0  0  0  0  0  0  0  0
  -48.1594   61.1209   64.3845 C   0  0  0  0  0  0  0  0  0  0  0  0
  -49.0952   60.4022   63.4137 C   0  0  0  0  0  0  0  0  0  0  0  0
  -50.5483   60.4318   63.8945 C   0  0  0  0  0  0  0  0  0  0  0  0
  -51.5328   59.9288   62.8421 C   0  0  0  0  0  0  0  0  0  0  0  0
  7  8  2  0  0  0
  7  6  1  0  0  0
  7  9  1  0  0  0
  6  5  1  0  0  0
  5  4  1  0  0  0
  4  3  1  0  0  0
  3  2  1  0  0  0
  2  1  1  0  0  0
  1 11  1  0  0  0
 11 12  1  0  0  0
 12 13  2  0  0  0
 13 14  1  0  0  0
 14 15  1  0  0  0
 15 16  1  0  0  0
 16 17  1  0  0  0
 17 18  1  0  0  0
 18 19  1  0  0  0
  9 10  1  0  0  0
M  END
> <minimizedAffinity>
-6.66199

> <CNNscore>
0.7120403647

> <CNNaffinity>
5.9648308754

> <CNN_VS>
4.2472004890

> <CNNaffinity_variance>
0.2865392566

$$$$



 19 18  0  0  0  0  0  0  0  0999 V2000
  -45.3119   59.7506   65.4842 C   0  0  0  0  0  0  0  0  0  0  0  0
  -44.3676   58.7372   64.8523 C   0  0  0  0  0  0  0  0  0  0  0  0
  -42.9506   59.2679   64.7167 C   0  0  0  0  0  0  0  0  0  0  0  0
  -42.0454   58.6157   65.7488 C   0  0  0  0  0  0  0  0  0  0  0  0
  -41.5792   59.6723   66.7340 C   0  0  0  0  0  0  0  0  0  0  0  0
  -41.3612   61.0164   66.0576 C   0  0  0  0  0  0  0  0  0  0  0  0
  -39.8864   61.2102   65.8065 C   0  0  0  0  0  0  0  0  0  0  0  0
  -39.1566   60.2252   65.5810 O   0  0  0  0  0  0  0  0  0  0  0  0
  -39.3710   62.3482   65.8238 O   0  0  0  0  0  0  0  0  0  0  0  0
  -39.9030   63.1010   65.9915 H   0  0  0  0  0  0  0  0  0  0  0  0
  -46.1632   59.0008   66.4984 C   0  0  0  0  0  0  0  0  0  0  0  0
  -46.7459   57.7365   65.9138 C   0  0  0  0  0  0  0  0  0  0  0  0
  -48.0734   57.7718   65.2799 C   0  0  0  0  0  0  0  0  0  0  0  0
  -48.9174   59.0137   65.4202 C   0  0  0  0  0  0  0  0  0  0  0  0
  -50.3044   58.7938   64.8263 C   0  0  0  0  0  0  0  0  0  0  0  0
  -50.8642   60.1095   64.2859 C   0  0  0  0  0  0  0  0  0  0  0  0
  -51.5497   59.9196   62.9336 C   0  0  0  0  0  0  0  0  0  0  0  0
  -50.5544   59.5230   61.8402 C   0  0  0  0  0  0  0  0  0  0  0  0
  -49.4125   60.5239   61.6845 C   0  0  0  0  0  0  0  0  0  0  0  0
  7  8  2  0  0  0
  7  6  1  0  0  0
  7  9  1  0  0  0
  6  5  1  0  0  0
  5  4  1  0  0  0
  4  3  1  0  0  0
  3  2  1  0  0  0
  2  1  1  0  0  0
  1 11  1  0  0  0
 11 12  1  0  0  0
 12 13  2  0  0  0
 13 14  1  0  0  0
 14 15  1  0  0  0
 15 16  1  0  0  0
 16 17  1  0  0  0
 17 18  1  0  0  0
 18 19  1  0  0  0
  9 10  1  0  0  0
M  END
> <minimizedAffinity>
-6.77243

> <CNNscore>
0.7073628306

> <CNNaffinity>
6.0167975426

> <CNN_VS>
4.2560591698

> <CNNaffinity_variance>
0.1495129764

$$$$



 19 18  0  0  0  0  0  0  0  0999 V2000
  -46.7581   60.2467   65.2877 C   0  0  0  0  0  0  0  0  0  0  0  0
  -45.8495   59.1821   65.8866 C   0  0  0  0  0  0  0  0  0  0  0  0
  -44.7280   58.7774   64.9449 C   0  0  0  0  0  0  0  0  0  0  0  0
  -43.5871   59.7781   65.0278 C   0  0  0  0  0  0  0  0  0  0  0  0
  -42.7255   59.4451   66.2324 C   0  0  0  0  0  0  0  0  0  0  0  0
  -42.1437   60.6957   66.8721 C   0  0  0  0  0  0  0  0  0  0  0  0
  -40.8993   61.1016   66.1223 C   0  0  0  0  0  0  0  0  0  0  0  0
  -40.0813   60.2358   65.7548 O   0  0  0  0  0  0  0  0  0  0  0  0
  -40.6630   62.3003   65.8612 O   0  0  0  0  0  0  0  0  0  0  0  0
  -41.2658   62.9658   66.1291 H   0  0  0  0  0  0  0  0  0  0  0  0
  -48.1359   60.0626   65.9071 C   0  0  0  0  0  0  0  0  0  0  0  0
  -48.7291   58.7178   65.5620 C   0  0  0  0  0  0  0  0  0  0  0  0
  -49.9534   58.6489   64.7485 C   0  0  0  0  0  0  0  0  0  0  0  0
  -50.7122   59.9202   64.4613 C   0  0  0  0  0  0  0  0  0  0  0  0
  -51.0602   60.0182   62.9800 C   0  0  0  0  0  0  0  0  0  0  0  0
  -49.7995   60.2777   62.1555 C   0  0  0  0  0  0  0  0  0  0  0  0
  -49.7543   59.4056   60.9016 C   0  0  0  0  0  0  0  0  0  0  0  0
  -49.8066   57.9140   61.2419 C   0  0  0  0  0  0  0  0  0  0  0  0
  -50.9936   57.1995   60.6011 C   0  0  0  0  0  0  0  0  0  0  0  0
  7  8  2  0  0  0
  7  6  1  0  0  0
  7  9  1  0  0  0
  6  5  1  0  0  0
  5  4  1  0  0  0
  4  3  1  0  0  0
  3  2  1  0  0  0
  2  1  1  0  0  0
  1 11  1  0  0  0
 11 12  1  0  0  0
 12 13  2  0  0  0
 13 14  1  0  0  0
 14 15  1  0  0  0
 15 16  1  0  0  0
 16 17  1  0  0  0
 17 18  1  0  0  0
 18 19  1  0  0  0
  9 10  1  0  0  0
M  END
> <minimizedAffinity>
-7.01365

> <CNNscore>
0.7016950846

> <CNNaffinity>
6.0002427101

> <CNN_VS>
4.2103409767

> <CNNaffinity_variance>
0.3454248309

$$$$



 19 18  0  0  0  0  0  0  0  0999 V2000
  -42.4613   60.6464   64.2809 C   0  0  0  0  0  0  0  0  0  0  0  0
  -41.0691   60.1130   63.9723 C   0  0  0  0  0  0  0  0  0  0  0  0
  -40.6548   58.9915   64.9097 C   0  0  0  0  0  0  0  0  0  0  0  0
  -39.1564   58.7553   64.8146 C   0  0  0  0  0  0  0  0  0  0  0  0
  -38.4689   60.0709   64.4965 C   0  0  0  0  0  0  0  0  0  0  0  0
  -37.6052   60.5493   65.6527 C   0  0  0  0  0  0  0  0  0  0  0  0
  -37.0571   61.9166   65.3277 C   0  0  0  0  0  0  0  0  0  0  0  0
  -37.0420   62.3192   64.1481 O   0  0  0  0  0  0  0  0  0  0  0  0
  -36.6077   62.6633   66.2229 O   0  0  0  0  0  0  0  0  0  0  0  0
  -36.6104   62.3786   67.1156 H   0  0  0  0  0  0  0  0  0  0  0  0
  -43.3394   59.4481   64.6105 C   0  0  0  0  0  0  0  0  0  0  0  0
  -44.2832   59.7432   65.7514 C   0  0  0  0  0  0  0  0  0  0  0  0
  -45.5162   58.9539   65.8994 C   0  0  0  0  0  0  0  0  0  0  0  0
  -45.9218   58.0173   64.7891 C   0  0  0  0  0  0  0  0  0  0  0  0
  -47.3393   57.5005   65.0095 C   0  0  0  0  0  0  0  0  0  0  0  0
  -48.3185   58.6692   65.1185 C   0  0  0  0  0  0  0  0  0  0  0  0
  -49.2761   58.7176   63.9288 C   0  0  0  0  0  0  0  0  0  0  0  0
  -50.5557   59.4909   64.2576 C   0  0  0  0  0  0  0  0  0  0  0  0
  -51.3128   59.9441   63.0120 C   0  0  0  0  0  0  0  0  0  0  0  0
  7  8  2  0  0  0
  7  6  1  0  0  0
  7  9  1  0  0  0
  6  5  1  0  0  0
  5  4  1  0  0  0
  4  3  1  0  0  0
  3  2  1  0  0  0
  2  1  1  0  0  0
  1 11  1  0  0  0
 11 12  1  0  0  0
 12 13  2  0  0  0
 13 14  1  0  0  0
 14 15  1  0  0  0
 15 16  1  0  0  0
 16 17  1  0  0  0
 17 18  1  0  0  0
 18 19  1  0  0  0
  9 10  1  0  0  0
M  END
> <minimizedAffinity>
-6.02458

> <CNNscore>
0.6759775877

> <CNNaffinity>
6.0261125565

> <CNN_VS>
4.0735168457

> <CNNaffinity_variance>
0.2443015575

$$$$
