


 19 18  0  0  0  0  0  0  0  0999 V2000
  -51.4058   58.9001   62.5040 C   0  0  0  0  0  0  0  0  0  0  0  0
  -51.2266   57.7463   61.5271 C   0  0  0  0  0  0  0  0  0  0  0  0
  -50.3391   58.1131   60.3498 C   0  0  0  0  0  0  0  0  0  0  0  0
  -49.0408   57.3250   60.4064 C   0  0  0  0  0  0  0  0  0  0  0  0
  -48.9411   56.4492   59.1705 C   0  0  0  0  0  0  0  0  0  0  0  0
  -47.7796   56.8611   58.2800 C   0  0  0  0  0  0  0  0  0  0  0  0
  -47.8472   56.0848   56.9884 C   0  0  0  0  0  0  0  0  0  0  0  0
  -47.8684   54.8386   57.0092 O   0  0  0  0  0  0  0  0  0  0  0  0
  -47.8781   56.6676   55.8838 O   0  0  0  0  0  0  0  0  0  0  0  0
  -47.8630   57.6037   55.8474 H   0  0  0  0  0  0  0  0  0  0  0  0
  -50.1197   59.0111   63.3099 C   0  0  0  0  0  0  0  0  0  0  0  0
  -50.3534   58.7386   64.7764 C   0  0  0  0  0  0  0  0  0  0  0  0
  -49.4945   59.3829   65.7827 C   0  0  0  0  0  0  0  0  0  0  0  0
  -48.2643   60.1258   65.3256 C   0  0  0  0  0  0  0  0  0  0  0  0
  -47.0331   59.6547   66.0919 C   0  0  0  0  0  0  0  0  0  0  0  0
  -46.2018   58.7066   65.2279 C   0  0  0  0  0  0  0  0  0  0  0  0
  -45.7363   57.4837   66.0168 C   0  0  0  0  0  0  0  0  0  0  0  0
  -46.7872   57.0252   67.0311 C   0  0  0  0  0  0  0  0  0  0  0  0
  -47.7898   56.0363   66.4422 C   0  0  0  0  0  0  0  0  0  0  0  0
  7  8  2  0  0  0
  7  6  1  0  0  0
  7  9  1  0  0  0
  6  5  1  0  0  0
  5  4  1  0  0  0
  4  3  1  0  0  0
  3  2  1  0  0  0
  2  1  1  0  0  0
  1 11  1  0  0  0
 11 12  1  0  0  0
 12 13  2  0  0  0
 13 14  1  0  0  0
 14 15  1  0  0  0
 15 16  1  0  0  0
 16 17  1  0  0  0
 17 18  1  0  0  0
 18 19  1  0  0  0
  9 10  1  0  0  0
M  END
> <minimizedAffinity>
-7.33931

> <CNNscore>
0.8409198523

> <CNNaffinity>
6.5169410706

> <CNN_VS>
5.4802250862

> <CNNaffinity_variance>
0.4073716998

$$$$



 19 18  0  0  0  0  0  0  0  0999 V2000
  -45.1290   59.3176   65.3707 C   0  0  0  0  0  0  0  0  0  0  0  0
  -44.6507   58.8894   66.7511 C   0  0  0  0  0  0  0  0  0  0  0  0
  -43.1362   58.8999   66.8714 C   0  0  0  0  0  0  0  0  0  0  0  0
  -42.5310   57.8397   65.9660 C   0  0  0  0  0  0  0  0  0  0  0  0
  -41.1290   58.2687   65.5728 C   0  0  0  0  0  0  0  0  0  0  0  0
  -40.8713   59.7288   65.9093 C   0  0  0  0  0  0  0  0  0  0  0  0
  -39.4256   60.0537   65.6265 C   0  0  0  0  0  0  0  0  0  0  0  0
  -38.8019   59.4185   64.7540 O   0  0  0  0  0  0  0  0  0  0  0  0
  -38.8289   60.9524   66.2567 O   0  0  0  0  0  0  0  0  0  0  0  0
  -39.2806   61.4410   66.9164 H   0  0  0  0  0  0  0  0  0  0  0  0
  -46.0169   58.2032   64.8365 C   0  0  0  0  0  0  0  0  0  0  0  0
  -46.8077   57.5409   65.9391 C   0  0  0  0  0  0  0  0  0  0  0  0
  -48.2639   57.3834   65.7974 C   0  0  0  0  0  0  0  0  0  0  0  0
  -48.9667   58.0792   64.6589 C   0  0  0  0  0  0  0  0  0  0  0  0
  -50.1264   58.9236   65.1757 C   0  0  0  0  0  0  0  0  0  0  0  0
  -51.0125   59.3742   64.0146 C   0  0  0  0  0  0  0  0  0  0  0  0
  -50.4534   58.9202   62.6670 C   0  0  0  0  0  0  0  0  0  0  0  0
  -51.4586   58.0653   61.8911 C   0  0  0  0  0  0  0  0  0  0  0  0
  -50.8245   57.3170   60.7215 C   0  0  0  0  0  0  0  0  0  0  0  0
  7  8  2  0  0  0
  7  6  1  0  0  0
  7  9  1  0  0  0
  6  5  1  0  0  0
  5  4  1  0  0  0
  4  3  1  0  0  0
  3  2  1  0  0  0
  2  1  1  0  0  0
  1 11  1  0  0  0
 11 12  1  0  0  0
 12 13  2  0  0  0
 13 14  1  0  0  0
 14 15  1  0  0  0
 15 16  1  0  0  0
 16 17  1  0  0  0
 17 18  1  0  0  0
 18 19  1  0  0  0
  9 10  1  0  0  0
M  END
> <minimizedAffinity>
-6.64605

> <CNNscore>
0.8310164213

> <CNNaffinity>
6.3664832115

> <CNN_VS>
5.2906522751

> <CNNaffinity_variance>
0.2870858312

$$$$



 19 18  0  0  0  0  0  0  0  0999 V2000
  -43.3232   59.0733   66.8893 C   0  0  0  0  0  0  0  0  0  0  0  0
  -42.2152   58.3789   66.1097 C   0  0  0  0  0  0  0  0  0  0  0  0
  -41.6181   59.2669   65.0312 C   0  0  0  0  0  0  0  0  0  0  0  0
  -40.2981   58.6891   64.5477 C   0  0  0  0  0  0  0  0  0  0  0  0
  -39.2749   58.7950   65.6641 C   0  0  0  0  0  0  0  0  0  0  0  0
  -37.9003   59.1719   65.1348 C   0  0  0  0  0  0  0  0  0  0  0  0
  -37.6316   60.6234   65.4455 C   0  0  0  0  0  0  0  0  0  0  0  0
  -38.3213   61.2178   66.2969 O   0  0  0  0  0  0  0  0  0  0  0  0
  -36.7261   61.2539   64.8596 O   0  0  0  0  0  0  0  0  0  0  0  0
  -36.1969   60.8245   64.2164 H   0  0  0  0  0  0  0  0  0  0  0  0
  -44.5627   59.0729   66.0065 C   0  0  0  0  0  0  0  0  0  0  0  0
  -45.7186   58.3592   66.6656 C   0  0  0  0  0  0  0  0  0  0  0  0
  -47.0970   58.7891   66.3821 C   0  0  0  0  0  0  0  0  0  0  0  0
  -47.3203   60.0682   65.6151 C   0  0  0  0  0  0  0  0  0  0  0  0
  -48.4232   59.8900   64.5774 C   0  0  0  0  0  0  0  0  0  0  0  0
  -48.3099   58.5176   63.9140 C   0  0  0  0  0  0  0  0  0  0  0  0
  -49.5280   58.2068   63.0456 C   0  0  0  0  0  0  0  0  0  0  0  0
  -50.8270   58.7019   63.6866 C   0  0  0  0  0  0  0  0  0  0  0  0
  -51.6017   59.6658   62.7916 C   0  0  0  0  0  0  0  0  0  0  0  0
  7  8  2  0  0  0
  7  6  1  0  0  0
  7  9  1  0  0  0
  6  5  1  0  0  0
  5  4  1  0  0  0
  4  3  1  0  0  0
  3  2  1  0  0  0
  2  1  1  0  0  0
  1 11  1  0  0  0
 11 12  1  0  0  0
 12 13  2  0  0  0
 13 14  1  0  0  0
 14 15  1  0  0  0
 15 16  1  0  0  0
 16 17  1  0  0  0
 17 18  1  0  0  0
 18 19  1  0  0  0
  9 10  1  0  0  0
M  END
> <minimizedAffinity>
-6.38506

> <CNNscore>
0.8115673661

> <CNNaffinity>
6.2744779587

> <CNN_VS>
5.0921616554

> <CNNaffinity_variance>
0.4218838215

$$$$



 19 18  0  0  0  0  0  0  0  0999 V2000
  -51.5003   59.2488   62.3738 C   0  0  0  0  0  0  0  0  0  0  0  0
  -51.0733   57.8652   61.9034 C   0  0  0  0  0  0  0  0  0  0  0  0
  -50.6742   57.8464   60.4377 C   0  0  0  0  0  0  0  0  0  0  0  0
  -49.4008   57.0378   60.2514 C   0  0  0  0  0  0  0  0  0  0  0  0
  -48.6988   57.5069   58.9898 C   0  0  0  0  0  0  0  0  0  0  0  0
  -47.5336   56.6014   58.6234 C   0  0  0  0  0  0  0  0  0  0  0  0
  -47.7646   56.0313   57.2460 C   0  0  0  0  0  0  0  0  0  0  0  0
  -47.7945   56.7862   56.2546 O   0  0  0  0  0  0  0  0  0  0  0  0
  -47.9336   54.8056   57.0728 O   0  0  0  0  0  0  0  0  0  0  0  0
  -47.9146   54.2219   57.8056 H   0  0  0  0  0  0  0  0  0  0  0  0
  -50.5261   59.6743   63.4626 C   0  0  0  0  0  0  0  0  0  0  0  0
  -50.4924   58.6834   64.6013 C   0  0  0  0  0  0  0  0  0  0  0  0
  -49.2033   58.3138   65.2073 C   0  0  0  0  0  0  0  0  0  0  0  0
  -47.9272   58.7607   64.5394 C   0  0  0  0  0  0  0  0  0  0  0  0
  -47.0746   59.5829   65.4996 C   0  0  0  0  0  0  0  0  0  0  0  0
  -45.6146   59.1359   65.4275 C   0  0  0  0  0  0  0  0  0  0  0  0
  -45.4475   57.8867   64.5639 C   0  0  0  0  0  0  0  0  0  0  0  0
  -44.8464   56.7222   65.3552 C   0  0  0  0  0  0  0  0  0  0  0  0
  -43.8102   57.1732   66.3814 C   0  0  0  0  0  0  0  0  0  0  0  0
  7  8  2  0  0  0
  7  6  1  0  0  0
  7  9  1  0  0  0
  6  5  1  0  0  0
  5  4  1  0  0  0
  4  3  1  0  0  0
  3  2  1  0  0  0
  2  1  1  0  0  0
  1 11  1  0  0  0
 11 12  1  0  0  0
 12 13  2  0  0  0
 13 14  1  0  0  0
 14 15  1  0  0  0
 15 16  1  0  0  0
 16 17  1  0  0  0
 17 18  1  0  0  0
 18 19  1  0  0  0
  9 10  1  0  0  0
M  END
> <minimizedAffinity>
-7.47620

> <CNNscore>
0.7844864726

> <CNNaffinity>
6.6208839417

> <CNN_VS>
5.1939940453

> <CNNaffinity_variance>
0.5548271537

$$$$



 19 18  0  0  0  0  0  0  0  0999 V2000
  -41.2683   59.3931   64.5577 C   0  0  0  0  0  0  0  0  0  0  0  0
  -40.3216   58.5969   65.4452 C   0  0  0  0  0  0  0  0  0  0  0  0
  -39.3589   57.7365   64.6445 C   0  0  0  0  0  0  0  0  0  0  0  0
  -37.9364   57.9431   65.1381 C   0  0  0  0  0  0  0  0  0  0  0  0
  -37.2299   58.9175   64.2130 C   0  0  0  0  0  0  0  0  0  0  0  0
  -36.5858   60.0594   64.9830 C   0  0  0  0  0  0  0  0  0  0  0  0
  -37.6323   61.1020   65.2887 C   0  0  0  0  0  0  0  0  0  0  0  0
  -38.3068   61.5991   64.3658 O   0  0  0  0  0  0  0  0  0  0  0  0
  -37.8391   61.4878   66.4588 O   0  0  0  0  0  0  0  0  0  0  0  0
  -37.3423   61.1260   67.1661 H   0  0  0  0  0  0  0  0  0  0  0  0
  -42.3414   59.9838   65.4606 C   0  0  0  0  0  0  0  0  0  0  0  0
  -42.5691   59.1346   66.6881 C   0  0  0  0  0  0  0  0  0  0  0  0
  -43.9200   58.6330   66.9863 C   0  0  0  0  0  0  0  0  0  0  0  0
  -45.0866   59.1555   66.1860 C   0  0  0  0  0  0  0  0  0  0  0  0
  -46.1345   58.0663   65.9850 C   0  0  0  0  0  0  0  0  0  0  0  0
  -46.6715   58.1051   64.5544 C   0  0  0  0  0  0  0  0  0  0  0  0
  -48.1043   58.6335   64.5022 C   0  0  0  0  0  0  0  0  0  0  0  0
  -48.9357   58.1465   65.6918 C   0  0  0  0  0  0  0  0  0  0  0  0
  -50.4235   58.4532   65.5423 C   0  0  0  0  0  0  0  0  0  0  0  0
  7  8  2  0  0  0
  7  6  1  0  0  0
  7  9  1  0  0  0
  6  5  1  0  0  0
  5  4  1  0  0  0
  4  3  1  0  0  0
  3  2  1  0  0  0
  2  1  1  0  0  0
  1 11  1  0  0  0
 11 12  1  0  0  0
 12 13  2  0  0  0
 13 14  1  0  0  0
 14 15  1  0  0  0
 15 16  1  0  0  0
 16 17  1  0  0  0
 17 18  1  0  0  0
 18 19  1  0  0  0
  9 10  1  0  0  0
M  END
> <minimizedAffinity>
-5.98523

> <CNNscore>
0.7383755445

> <CNNaffinity>
6.0395274162

> <CNN_VS>
4.4594392776

> <CNNaffinity_variance>
0.1710865796

$$$$



 19 18  0  0  0  0  0  0  0  0999 V2000
  -47.0697   59.5643   65.4187 C   0  0  0  0  0  0  0  0  0  0  0  0
  -46.4300   58.7784   66.5548 C   0  0  0  0  0  0  0  0  0  0  0  0
  -44.9122   58.8380   66.5212 C   0  0  0  0  0  0  0  0  0  0  0  0
  -44.4223   58.9161   65.0845 C   0  0  0  0  0  0  0  0  0  0  0  0
  -43.0429   59.5496   65.0675 C   0  0  0  0  0  0  0  0  0  0  0  0
  -42.0567   58.7757   65.9277 C   0  0  0  0  0  0  0  0  0  0  0  0
  -40.6798   59.3674   65.7554 C   0  0  0  0  0  0  0  0  0  0  0  0
  -39.7042   58.6243   65.5321 O   0  0  0  0  0  0  0  0  0  0  0  0
  -40.4900   60.5995   65.8367 O   0  0  0  0  0  0  0  0  0  0  0  0
  -41.2107   61.1745   66.0041 H   0  0  0  0  0  0  0  0  0  0  0  0
  -48.1072   58.6576   64.7728 C   0  0  0  0  0  0  0  0  0  0  0  0
  -49.2617   58.3764   65.7044 C   0  0  0  0  0  0  0  0  0  0  0  0
  -50.5289   59.1049   65.5343 C   0  0  0  0  0  0  0  0  0  0  0  0
  -50.5792   60.2699   64.5780 C   0  0  0  0  0  0  0  0  0  0  0  0
  -51.6341   60.0395   63.5014 C   0  0  0  0  0  0  0  0  0  0  0  0
  -50.9792   59.5278   62.2186 C   0  0  0  0  0  0  0  0  0  0  0  0
  -50.9065   58.0019   62.1903 C   0  0  0  0  0  0  0  0  0  0  0  0
  -51.3008   57.4371   60.8233 C   0  0  0  0  0  0  0  0  0  0  0  0
  -50.2920   57.7728   59.7281 C   0  0  0  0  0  0  0  0  0  0  0  0
  7  8  2  0  0  0
  7  6  1  0  0  0
  7  9  1  0  0  0
  6  5  1  0  0  0
  5  4  1  0  0  0
  4  3  1  0  0  0
  3  2  1  0  0  0
  2  1  1  0  0  0
  1 11  1  0  0  0
 11 12  1  0  0  0
 12 13  2  0  0  0
 13 14  1  0  0  0
 14 15  1  0  0  0
 15 16  1  0  0  0
 16 17  1  0  0  0
 17 18  1  0  0  0
 18 19  1  0  0  0
  9 10  1  0  0  0
M  END
> <minimizedAffinity>
-6.96905

> <CNNscore>
0.6999661326

> <CNNaffinity>
6.0760874748

> <CNN_VS>
4.2530555725

> <CNNaffinity_variance>
0.2167439461

$$$$



 19 18  0  0  0  0  0  0  0  0999 V2000
  -44.5539   59.1425   65.2653 C   0  0  0  0  0  0  0  0  0  0  0  0
  -43.9340   58.5848   66.5391 C   0  0  0  0  0  0  0  0  0  0  0  0
  -42.4624   58.2469   66.3704 C   0  0  0  0  0  0  0  0  0  0  0  0
  -41.8699   59.0443   65.2202 C   0  0  0  0  0  0  0  0  0  0  0  0
  -40.3562   59.0236   65.3338 C   0  0  0  0  0  0  0  0  0  0  0  0
  -39.7712   57.7135   64.8308 C   0  0  0  0  0  0  0  0  0  0  0  0
  -39.0905   57.9523   63.5060 C   0  0  0  0  0  0  0  0  0  0  0  0
  -38.0335   57.3519   63.2298 O   0  0  0  0  0  0  0  0  0  0  0  0
  -39.5637   58.7508   62.6697 O   0  0  0  0  0  0  0  0  0  0  0  0
  -40.3573   59.2116   62.8589 H   0  0  0  0  0  0  0  0  0  0  0  0
  -45.3550   58.0182   64.6252 C   0  0  0  0  0  0  0  0  0  0  0  0
  -46.1953   57.2817   65.6407 C   0  0  0  0  0  0  0  0  0  0  0  0
  -47.6326   57.5780   65.7491 C   0  0  0  0  0  0  0  0  0  0  0  0
  -48.1932   58.7611   65.0006 C   0  0  0  0  0  0  0  0  0  0  0  0
  -49.0660   58.3004   63.8383 C   0  0  0  0  0  0  0  0  0  0  0  0
  -50.5400   58.5643   64.1453 C   0  0  0  0  0  0  0  0  0  0  0  0
  -51.2797   59.1223   62.9304 C   0  0  0  0  0  0  0  0  0  0  0  0
  -50.6412   58.6680   61.6153 C   0  0  0  0  0  0  0  0  0  0  0  0
  -51.3248   57.4423   61.0150 C   0  0  0  0  0  0  0  0  0  0  0  0
  7  8  2  0  0  0
  7  6  1  0  0  0
  7  9  1  0  0  0
  6  5  1  0  0  0
  5  4  1  0  0  0
  4  3  1  0  0  0
  3  2  1  0  0  0
  2  1  1  0  0  0
  1 11  1  0  0  0
 11 12  1  0  0  0
 12 13  2  0  0  0
 13 14  1  0  0  0
 14 15  1  0  0  0
 15 16  1  0  0  0
 16 17  1  0  0  0
 17 18  1  0  0  0
 18 19  1  0  0  0
  9 10  1  0  0  0
M  END
> <minimizedAffinity>
-6.56964

> <CNNscore>
0.6630698442

> <CNNaffinity>
6.1472082138

> <CNN_VS>
4.0760283470

> <CNNaffinity_variance>
0.3183270991

$$$$



 19 18  0  0  0  0  0  0  0  0999 V2000
  -44.2992   58.1535   58.1554 C   0  0  0  0  0  0  0  0  0  0  0  0
  -43.4015   58.7009   57.0544 C   0  0  0  0  0  0  0  0  0  0  0  0
  -42.0394   59.1292   57.5735 C   0  0  0  0  0  0  0  0  0  0  0  0
  -42.1444   59.5615   59.0268 C   0  0  0  0  0  0  0  0  0  0  0  0
  -40.9001   60.3477   59.3986 C   0  0  0  0  0  0  0  0  0  0  0  0
  -40.2508   59.8097   60.6638 C   0  0  0  0  0  0  0  0  0  0  0  0
  -38.8824   59.2716   60.3269 C   0  0  0  0  0  0  0  0  0  0  0  0
  -38.4920   58.1994   60.8286 O   0  0  0  0  0  0  0  0  0  0  0  0
  -38.1189   59.8846   59.5507 O   0  0  0  0  0  0  0  0  0  0  0  0
  -38.3943   60.6922   59.1636 H   0  0  0  0  0  0  0  0  0  0  0  0
  -45.7365   58.4501   57.7530 C   0  0  0  0  0  0  0  0  0  0  0  0
  -46.4216   57.2300   57.1857 C   0  0  0  0  0  0  0  0  0  0  0  0
  -47.6651   56.7405   57.8018 C   0  0  0  0  0  0  0  0  0  0  0  0
  -48.1114   57.3313   59.1156 C   0  0  0  0  0  0  0  0  0  0  0  0
  -49.6307   57.2913   59.2372 C   0  0  0  0  0  0  0  0  0  0  0  0
  -50.0388   56.9283   60.6648 C   0  0  0  0  0  0  0  0  0  0  0  0
  -51.3594   57.5871   61.0605 C   0  0  0  0  0  0  0  0  0  0  0  0
  -51.2423   58.3516   62.3816 C   0  0  0  0  0  0  0  0  0  0  0  0
  -49.8055   58.4458   62.8884 C   0  0  0  0  0  0  0  0  0  0  0  0
  7  8  2  0  0  0
  7  6  1  0  0  0
  7  9  1  0  0  0
  6  5  1  0  0  0
  5  4  1  0  0  0
  4  3  1  0  0  0
  3  2  1  0  0  0
  2  1  1  0  0  0
  1 11  1  0  0  0
 11 12  1  0  0  0
 12 13  2  0  0  0
 13 14  1  0  0  0
 14 15  1  0  0  0
 15 16  1  0  0  0
 16 17  1  0  0  0
 17 18  1  0  0  0
 18 19  1  0  0  0
  9 10  1  0  0  0
M  END
> <minimizedAffinity>
-5.98081

> <CNNscore>
0.6589750051

> <CNNaffinity>
5.6332488060

> <CNN_VS>
3.7121701241

> <CNNaffinity_variance>
0.2187650651

$$$$



 19 18  0  0  0  0  0  0  0  0999 V2000
  -48.5175   59.4208   64.3804 C   0  0  0  0  0  0  0  0  0  0  0  0
  -48.1418   59.6968   65.8297 C   0  0  0  0  0  0  0  0  0  0  0  0
  -46.8224   59.0533   66.2214 C   0  0  0  0  0  0  0  0  0  0  0  0
  -45.6738   59.7214   65.4835 C   0  0  0  0  0  0  0  0  0  0  0  0
  -44.6000   58.6860   65.2018 C   0  0  0  0  0  0  0  0  0  0  0  0
  -43.2292   59.3245   65.0440 C   0  0  0  0  0  0  0  0  0  0  0  0
  -42.2345   58.5776   65.8974 C   0  0  0  0  0  0  0  0  0  0  0  0
  -42.4428   58.4335   67.1178 O   0  0  0  0  0  0  0  0  0  0  0  0
  -41.1913   58.0975   65.4054 O   0  0  0  0  0  0  0  0  0  0  0  0
  -41.0169   58.1954   64.4900 H   0  0  0  0  0  0  0  0  0  0  0  0
  -49.7558   58.5364   64.3973 C   0  0  0  0  0  0  0  0  0  0  0  0
  -51.0141   59.3310   64.1421 C   0  0  0  0  0  0  0  0  0  0  0  0
  -51.5487   59.4291   62.7747 C   0  0  0  0  0  0  0  0  0  0  0  0
  -50.7143   58.9211   61.6257 C   0  0  0  0  0  0  0  0  0  0  0  0
  -51.2679   57.6021   61.0981 C   0  0  0  0  0  0  0  0  0  0  0  0
  -50.1510   56.7751   60.4618 C   0  0  0  0  0  0  0  0  0  0  0  0
  -49.0293   57.6606   59.9211 C   0  0  0  0  0  0  0  0  0  0  0  0
  -48.5444   57.1918   58.5469 C   0  0  0  0  0  0  0  0  0  0  0  0
  -47.1390   57.6848   58.2126 C   0  0  0  0  0  0  0  0  0  0  0  0
  7  8  2  0  0  0
  7  6  1  0  0  0
  7  9  1  0  0  0
  6  5  1  0  0  0
  5  4  1  0  0  0
  4  3  1  0  0  0
  3  2  1  0  0  0
  2  1  1  0  0  0
  1 11  1  0  0  0
 11 12  1  0  0  0
 12 13  2  0  0  0
 13 14  1  0  0  0
 14 15  1  0  0  0
 15 16  1  0  0  0
 16 17  1  0  0  0
 17 18  1  0  0  0
 18 19  1  0  0  0
  9 10  1  0  0  0
M  END
> <minimizedAffinity>
-7.09954

> <CNNscore>
0.6523088217

> <CNNaffinity>
6.2248663902

> <CNN_VS>
4.0605354309

> <CNNaffinity_variance>
0.4562051892

$$$$
