


 19 18  0  0  0  0  0  0  0  0999 V2000
  -47.2601   58.1402   65.6533 C   0  0  0  0  0  0  0  0  0  0  0  0
  -45.8479   58.5681   65.2790 C   0  0  0  0  0  0  0  0  0  0  0  0
  -44.8593   58.3702   66.4156 C   0  0  0  0  0  0  0  0  0  0  0  0
  -43.5938   57.7049   65.8998 C   0  0  0  0  0  0  0  0  0  0  0  0
  -42.4136   58.1822   66.7268 C   0  0  0  0  0  0  0  0  0  0  0  0
  -42.5073   59.6675   67.0379 C   0  0  0  0  0  0  0  0  0  0  0  0
  -41.4499   60.4045   66.2543 C   0  0  0  0  0  0  0  0  0  0  0  0
  -40.6715   59.7757   65.5111 O   0  0  0  0  0  0  0  0  0  0  0  0
  -41.3305   61.6454   66.3366 O   0  0  0  0  0  0  0  0  0  0  0  0
  -41.9061   62.1358   66.8900 H   0  0  0  0  0  0  0  0  0  0  0  0
  -48.0859   59.4079   65.8170 C   0  0  0  0  0  0  0  0  0  0  0  0
  -48.0608   60.2567   64.5686 C   0  0  0  0  0  0  0  0  0  0  0  0
  -49.3244   60.6076   63.9010 C   0  0  0  0  0  0  0  0  0  0  0  0
  -50.5979   59.9343   64.3471 C   0  0  0  0  0  0  0  0  0  0  0  0
  -51.4248   59.4924   63.1446 C   0  0  0  0  0  0  0  0  0  0  0  0
  -50.5093   58.9994   62.0243 C   0  0  0  0  0  0  0  0  0  0  0  0
  -51.0098   57.6880   61.4207 C   0  0  0  0  0  0  0  0  0  0  0  0
  -50.0249   57.1190   60.3961 C   0  0  0  0  0  0  0  0  0  0  0  0
  -49.0643   58.1707   59.8475 C   0  0  0  0  0  0  0  0  0  0  0  0
  7  8  2  0  0  0
  7  6  1  0  0  0
  7  9  1  0  0  0
  6  5  1  0  0  0
  5  4  1  0  0  0
  4  3  1  0  0  0
  3  2  1  0  0  0
  2  1  1  0  0  0
  1 11  1  0  0  0
 11 12  1  0  0  0
 12 13  2  0  0  0
 13 14  1  0  0  0
 14 15  1  0  0  0
 15 16  1  0  0  0
 16 17  1  0  0  0
 17 18  1  0  0  0
 18 19  1  0  0  0
  9 10  1  0  0  0
M  END
> <minimizedAffinity>
-6.93184

> <CNNscore>
0.8596348763

> <CNNaffinity>
6.3735966682

> <CNN_VS>
5.4789657593

> <CNNaffinity_variance>
0.2166568935

$$$$



 19 18  0  0  0  0  0  0  0  0999 V2000
  -50.8268   59.5209   63.8157 C   0  0  0  0  0  0  0  0  0  0  0  0
  -51.0131   58.6537   62.5784 C   0  0  0  0  0  0  0  0  0  0  0  0
  -49.9308   58.8847   61.5375 C   0  0  0  0  0  0  0  0  0  0  0  0
  -50.2357   58.0894   60.2787 C   0  0  0  0  0  0  0  0  0  0  0  0
  -49.0623   57.1750   59.9766 C   0  0  0  0  0  0  0  0  0  0  0  0
  -48.1336   57.7758   58.9334 C   0  0  0  0  0  0  0  0  0  0  0  0
  -47.9738   56.8009   57.7934 C   0  0  0  0  0  0  0  0  0  0  0  0
  -47.5593   55.6460   58.0129 O   0  0  0  0  0  0  0  0  0  0  0  0
  -48.2459   57.1283   56.6189 O   0  0  0  0  0  0  0  0  0  0  0  0
  -48.5589   57.9919   56.4337 H   0  0  0  0  0  0  0  0  0  0  0  0
  -50.2477   58.6309   64.9058 C   0  0  0  0  0  0  0  0  0  0  0  0
  -49.5414   59.4369   65.9694 C   0  0  0  0  0  0  0  0  0  0  0  0
  -48.0893   59.6553   65.8733 C   0  0  0  0  0  0  0  0  0  0  0  0
  -47.3021   58.8900   64.8394 C   0  0  0  0  0  0  0  0  0  0  0  0
  -46.2685   57.9888   65.5060 C   0  0  0  0  0  0  0  0  0  0  0  0
  -44.8572   58.4038   65.0909 C   0  0  0  0  0  0  0  0  0  0  0  0
  -43.8582   57.2603   65.2611 C   0  0  0  0  0  0  0  0  0  0  0  0
  -42.8832   57.5211   66.4122 C   0  0  0  0  0  0  0  0  0  0  0  0
  -42.6999   59.0067   66.7108 C   0  0  0  0  0  0  0  0  0  0  0  0
  7  8  2  0  0  0
  7  6  1  0  0  0
  7  9  1  0  0  0
  6  5  1  0  0  0
  5  4  1  0  0  0
  4  3  1  0  0  0
  3  2  1  0  0  0
  2  1  1  0  0  0
  1 11  1  0  0  0
 11 12  1  0  0  0
 12 13  2  0  0  0
 13 14  1  0  0  0
 14 15  1  0  0  0
 15 16  1  0  0  0
 16 17  1  0  0  0
 17 18  1  0  0  0
 18 19  1  0  0  0
  9 10  1  0  0  0
M  END
> <minimizedAffinity>
-7.04443

> <CNNscore>
0.7995918989

> <CNNaffinity>
6.6267228127

> <CNN_VS>
5.2986741066

> <CNNaffinity_variance>
0.2846264243

$$$$



 19 18  0  0  0  0  0  0  0  0999 V2000
  -48.4429   59.4904   65.3716 C   0  0  0  0  0  0  0  0  0  0  0  0
  -47.3159   58.8659   64.5608 C   0  0  0  0  0  0  0  0  0  0  0  0
  -46.2752   58.1888   65.4364 C   0  0  0  0  0  0  0  0  0  0  0  0
  -44.8768   58.5411   64.9564 C   0  0  0  0  0  0  0  0  0  0  0  0
  -43.9593   57.3559   65.1977 C   0  0  0  0  0  0  0  0  0  0  0  0
  -43.2369   57.4648   66.5311 C   0  0  0  0  0  0  0  0  0  0  0  0
  -42.3381   58.6760   66.5091 C   0  0  0  0  0  0  0  0  0  0  0  0
  -41.3891   58.7350   65.7031 O   0  0  0  0  0  0  0  0  0  0  0  0
  -42.5211   59.6321   67.2923 O   0  0  0  0  0  0  0  0  0  0  0  0
  -43.2291   59.6065   67.9055 H   0  0  0  0  0  0  0  0  0  0  0  0
  -49.6920   58.6581   65.1212 C   0  0  0  0  0  0  0  0  0  0  0  0
  -50.8225   59.4965   64.5746 C   0  0  0  0  0  0  0  0  0  0  0  0
  -51.2629   59.3072   63.1833 C   0  0  0  0  0  0  0  0  0  0  0  0
  -50.4371   58.4394   62.2672 C   0  0  0  0  0  0  0  0  0  0  0  0
  -49.7497   59.2830   61.1990 C   0  0  0  0  0  0  0  0  0  0  0  0
  -49.5130   58.4517   59.9384 C   0  0  0  0  0  0  0  0  0  0  0  0
  -48.5371   57.3038   60.1926 C   0  0  0  0  0  0  0  0  0  0  0  0
  -47.8209   56.8695   58.9113 C   0  0  0  0  0  0  0  0  0  0  0  0
  -47.6165   58.0175   57.9263 C   0  0  0  0  0  0  0  0  0  0  0  0
  7  8  2  0  0  0
  7  6  1  0  0  0
  7  9  1  0  0  0
  6  5  1  0  0  0
  5  4  1  0  0  0
  4  3  1  0  0  0
  3  2  1  0  0  0
  2  1  1  0  0  0
  1 11  1  0  0  0
 11 12  1  0  0  0
 12 13  2  0  0  0
 13 14  1  0  0  0
 14 15  1  0  0  0
 15 16  1  0  0  0
 16 17  1  0  0  0
 17 18  1  0  0  0
 18 19  1  0  0  0
  9 10  1  0  0  0
M  END
> <minimizedAffinity>
-6.87735

> <CNNscore>
0.7977792621

> <CNNaffinity>
6.4662461281

> <CNN_VS>
5.1586370468

> <CNNaffinity_variance>
0.2348331660

$$$$



 19 18  0  0  0  0  0  0  0  0999 V2000
  -51.0104   58.6006   62.9819 C   0  0  0  0  0  0  0  0  0  0  0  0
  -49.7842   58.5235   62.0828 C   0  0  0  0  0  0  0  0  0  0  0  0
  -50.1470   58.3493   60.6178 C   0  0  0  0  0  0  0  0  0  0  0  0
  -48.8925   58.3770   59.7602 C   0  0  0  0  0  0  0  0  0  0  0  0
  -48.6117   56.9745   59.2515 C   0  0  0  0  0  0  0  0  0  0  0  0
  -47.1962   56.8435   58.7122 C   0  0  0  0  0  0  0  0  0  0  0  0
  -47.2502   56.6975   57.2118 C   0  0  0  0  0  0  0  0  0  0  0  0
  -47.6759   57.6342   56.5081 O   0  0  0  0  0  0  0  0  0  0  0  0
  -46.8781   55.6454   56.6501 O   0  0  0  0  0  0  0  0  0  0  0  0
  -46.5550   54.9301   57.1618 H   0  0  0  0  0  0  0  0  0  0  0  0
  -50.7863   59.7526   63.9506 C   0  0  0  0  0  0  0  0  0  0  0  0
  -50.6315   59.2663   65.3717 C   0  0  0  0  0  0  0  0  0  0  0  0
  -49.3420   59.4306   66.0613 C   0  0  0  0  0  0  0  0  0  0  0  0
  -48.1408   59.8792   65.2674 C   0  0  0  0  0  0  0  0  0  0  0  0
  -47.2778   58.6856   64.8732 C   0  0  0  0  0  0  0  0  0  0  0  0
  -47.1953   57.6870   66.0275 C   0  0  0  0  0  0  0  0  0  0  0  0
  -46.0219   57.9925   66.9571 C   0  0  0  0  0  0  0  0  0  0  0  0
  -44.7833   58.4484   66.1815 C   0  0  0  0  0  0  0  0  0  0  0  0
  -43.5988   57.4991   66.3420 C   0  0  0  0  0  0  0  0  0  0  0  0
  7  8  2  0  0  0
  7  6  1  0  0  0
  7  9  1  0  0  0
  6  5  1  0  0  0
  5  4  1  0  0  0
  4  3  1  0  0  0
  3  2  1  0  0  0
  2  1  1  0  0  0
  1 11  1  0  0  0
 11 12  1  0  0  0
 12 13  2  0  0  0
 13 14  1  0  0  0
 14 15  1  0  0  0
 15 16  1  0  0  0
 16 17  1  0  0  0
 17 18  1  0  0  0
 18 19  1  0  0  0
  9 10  1  0  0  0
M  END
> <minimizedAffinity>
-7.18260

> <CNNscore>
0.7511261702

> <CNNaffinity>
6.5268163681

> <CNN_VS>
4.9024624825

> <CNNaffinity_variance>
0.0973574370

$$$$



 19 18  0  0  0  0  0  0  0  0999 V2000
  -48.0883   59.1252   65.2963 C   0  0  0  0  0  0  0  0  0  0  0  0
  -46.6295   58.9133   64.9157 C   0  0  0  0  0  0  0  0  0  0  0  0
  -45.9662   57.8216   65.7381 C   0  0  0  0  0  0  0  0  0  0  0  0
  -44.5545   57.5701   65.2341 C   0  0  0  0  0  0  0  0  0  0  0  0
  -44.2135   58.6104   64.1825 C   0  0  0  0  0  0  0  0  0  0  0  0
  -43.1415   58.1138   63.2254 C   0  0  0  0  0  0  0  0  0  0  0  0
  -42.3234   59.2875   62.7473 C   0  0  0  0  0  0  0  0  0  0  0  0
  -41.1349   59.1238   62.4088 O   0  0  0  0  0  0  0  0  0  0  0  0
  -42.8127   60.4354   62.6858 O   0  0  0  0  0  0  0  0  0  0  0  0
  -43.7043   60.5786   62.9359 H   0  0  0  0  0  0  0  0  0  0  0  0
  -48.9342   58.4212   64.2454 C   0  0  0  0  0  0  0  0  0  0  0  0
  -50.3764   58.8652   64.2991 C   0  0  0  0  0  0  0  0  0  0  0  0
  -51.1528   58.9706   63.0535 C   0  0  0  0  0  0  0  0  0  0  0  0
  -50.4355   58.8466   61.7327 C   0  0  0  0  0  0  0  0  0  0  0  0
  -50.8772   57.5877   60.9946 C   0  0  0  0  0  0  0  0  0  0  0  0
  -49.7097   57.0016   60.2009 C   0  0  0  0  0  0  0  0  0  0  0  0
  -48.7770   58.0929   59.6776 C   0  0  0  0  0  0  0  0  0  0  0  0
  -48.0426   57.6552   58.4078 C   0  0  0  0  0  0  0  0  0  0  0  0
  -47.1456   56.4400   58.6289 C   0  0  0  0  0  0  0  0  0  0  0  0
  7  8  2  0  0  0
  7  6  1  0  0  0
  7  9  1  0  0  0
  6  5  1  0  0  0
  5  4  1  0  0  0
  4  3  1  0  0  0
  3  2  1  0  0  0
  2  1  1  0  0  0
  1 11  1  0  0  0
 11 12  1  0  0  0
 12 13  2  0  0  0
 13 14  1  0  0  0
 14 15  1  0  0  0
 15 16  1  0  0  0
 16 17  1  0  0  0
 17 18  1  0  0  0
 18 19  1  0  0  0
  9 10  1  0  0  0
M  END
> <minimizedAffinity>
-6.85901

> <CNNscore>
0.7489270568

> <CNNaffinity>
6.4211454391

> <CNN_VS>
4.8089694977

> <CNNaffinity_variance>
0.2407432795

$$$$



 19 18  0  0  0  0  0  0  0  0999 V2000
  -50.2625   59.0276   65.3296 C   0  0  0  0  0  0  0  0  0  0  0  0
  -49.0353   59.6067   66.0197 C   0  0  0  0  0  0  0  0  0  0  0  0
  -47.8500   59.7450   65.0795 C   0  0  0  0  0  0  0  0  0  0  0  0
  -47.2302   58.3830   64.8133 C   0  0  0  0  0  0  0  0  0  0  0  0
  -46.6644   57.8363   66.1116 C   0  0  0  0  0  0  0  0  0  0  0  0
  -45.2924   58.4160   66.4167 C   0  0  0  0  0  0  0  0  0  0  0  0
  -44.3168   57.9598   65.3605 C   0  0  0  0  0  0  0  0  0  0  0  0
  -43.7234   58.7983   64.6545 O   0  0  0  0  0  0  0  0  0  0  0  0
  -44.0895   56.7461   65.1703 O   0  0  0  0  0  0  0  0  0  0  0  0
  -44.5257   56.1005   65.6908 H   0  0  0  0  0  0  0  0  0  0  0  0
  -50.5043   59.8533   64.0744 C   0  0  0  0  0  0  0  0  0  0  0  0
  -51.4893   59.1842   63.1460 C   0  0  0  0  0  0  0  0  0  0  0  0
  -50.9959   58.3361   62.0494 C   0  0  0  0  0  0  0  0  0  0  0  0
  -49.5200   58.3275   61.7396 C   0  0  0  0  0  0  0  0  0  0  0  0
  -49.2495   58.9664   60.3818 C   0  0  0  0  0  0  0  0  0  0  0  0
  -49.1728   57.8926   59.2967 C   0  0  0  0  0  0  0  0  0  0  0  0
  -48.0167   56.9238   59.5403 C   0  0  0  0  0  0  0  0  0  0  0  0
  -47.1125   56.7941   58.3119 C   0  0  0  0  0  0  0  0  0  0  0  0
  -47.3575   57.8876   57.2755 C   0  0  0  0  0  0  0  0  0  0  0  0
  7  8  2  0  0  0
  7  6  1  0  0  0
  7  9  1  0  0  0
  6  5  1  0  0  0
  5  4  1  0  0  0
  4  3  1  0  0  0
  3  2  1  0  0  0
  2  1  1  0  0  0
  1 11  1  0  0  0
 11 12  1  0  0  0
 12 13  2  0  0  0
 13 14  1  0  0  0
 14 15  1  0  0  0
 15 16  1  0  0  0
 16 17  1  0  0  0
 17 18  1  0  0  0
 18 19  1  0  0  0
  9 10  1  0  0  0
M  END
> <minimizedAffinity>
-7.01025

> <CNNscore>
0.7204102278

> <CNNaffinity>
6.4836363792

> <CNN_VS>
4.6708779335

> <CNNaffinity_variance>
0.1352943480

$$$$



 19 18  0  0  0  0  0  0  0  0999 V2000
  -43.5742   58.0524   64.0356 C   0  0  0  0  0  0  0  0  0  0  0  0
  -43.2298   56.8720   64.9333 C   0  0  0  0  0  0  0  0  0  0  0  0
  -41.7859   56.4253   64.7787 C   0  0  0  0  0  0  0  0  0  0  0  0
  -41.1109   57.2092   63.6653 C   0  0  0  0  0  0  0  0  0  0  0  0
  -39.8292   57.8219   64.2004 C   0  0  0  0  0  0  0  0  0  0  0  0
  -40.0711   58.6068   65.4799 C   0  0  0  0  0  0  0  0  0  0  0  0
  -39.8125   60.0699   65.2188 C   0  0  0  0  0  0  0  0  0  0  0  0
  -39.8343   60.5095   64.0526 O   0  0  0  0  0  0  0  0  0  0  0  0
  -39.5693   60.8612   66.1545 O   0  0  0  0  0  0  0  0  0  0  0  0
  -39.5485   60.5498   67.0380 H   0  0  0  0  0  0  0  0  0  0  0  0
  -44.9876   58.4903   64.3908 C   0  0  0  0  0  0  0  0  0  0  0  0
  -45.3943   58.0086   65.7628 C   0  0  0  0  0  0  0  0  0  0  0  0
  -46.7846   58.1813   66.2128 C   0  0  0  0  0  0  0  0  0  0  0  0
  -47.7197   59.0292   65.3876 C   0  0  0  0  0  0  0  0  0  0  0  0
  -48.9148   59.4812   66.2196 C   0  0  0  0  0  0  0  0  0  0  0  0
  -50.1943   58.8142   65.7154 C   0  0  0  0  0  0  0  0  0  0  0  0
  -50.9376   59.6991   64.7159 C   0  0  0  0  0  0  0  0  0  0  0  0
  -50.9842   59.0698   63.3212 C   0  0  0  0  0  0  0  0  0  0  0  0
  -49.9169   59.6259   62.3822 C   0  0  0  0  0  0  0  0  0  0  0  0
  7  8  2  0  0  0
  7  6  1  0  0  0
  7  9  1  0  0  0
  6  5  1  0  0  0
  5  4  1  0  0  0
  4  3  1  0  0  0
  3  2  1  0  0  0
  2  1  1  0  0  0
  1 11  1  0  0  0
 11 12  1  0  0  0
 12 13  2  0  0  0
 13 14  1  0  0  0
 14 15  1  0  0  0
 15 16  1  0  0  0
 16 17  1  0  0  0
 17 18  1  0  0  0
 18 19  1  0  0  0
  9 10  1  0  0  0
M  END
> <minimizedAffinity>
-6.32909

> <CNNscore>
0.6693974733

> <CNNaffinity>
6.1765861511

> <CNN_VS>
4.1345911026

> <CNNaffinity_variance>
0.2723372281

$$$$



 19 18  0  0  0  0  0  0  0  0999 V2000
  -47.2508   57.1559   66.7108 C   0  0  0  0  0  0  0  0  0  0  0  0
  -46.2291   58.2828   66.6482 C   0  0  0  0  0  0  0  0  0  0  0  0
  -44.9598   57.8775   65.9182 C   0  0  0  0  0  0  0  0  0  0  0  0
  -44.9693   58.4315   64.5030 C   0  0  0  0  0  0  0  0  0  0  0  0
  -43.6653   58.0613   63.8196 C   0  0  0  0  0  0  0  0  0  0  0  0
  -42.7386   57.2960   64.7508 C   0  0  0  0  0  0  0  0  0  0  0  0
  -42.0775   56.1789   63.9823 C   0  0  0  0  0  0  0  0  0  0  0  0
  -41.7922   56.3325   62.7786 O   0  0  0  0  0  0  0  0  0  0  0  0
  -41.8096   55.0876   64.5285 O   0  0  0  0  0  0  0  0  0  0  0  0
  -42.0163   54.9529   65.4324 H   0  0  0  0  0  0  0  0  0  0  0  0
  -48.4801   57.6199   65.9431 C   0  0  0  0  0  0  0  0  0  0  0  0
  -48.6772   59.1129   66.0525 C   0  0  0  0  0  0  0  0  0  0  0  0
  -49.9070   59.7256   65.5258 C   0  0  0  0  0  0  0  0  0  0  0  0
  -50.8435   58.8857   64.6939 C   0  0  0  0  0  0  0  0  0  0  0  0
  -50.9988   59.4741   63.2959 C   0  0  0  0  0  0  0  0  0  0  0  0
  -50.8850   58.3730   62.2418 C   0  0  0  0  0  0  0  0  0  0  0  0
  -49.6203   58.5261   61.3981 C   0  0  0  0  0  0  0  0  0  0  0  0
  -49.8063   57.9679   59.9848 C   0  0  0  0  0  0  0  0  0  0  0  0
  -48.5112   57.9517   59.1771 C   0  0  0  0  0  0  0  0  0  0  0  0
  7  8  2  0  0  0
  7  6  1  0  0  0
  7  9  1  0  0  0
  6  5  1  0  0  0
  5  4  1  0  0  0
  4  3  1  0  0  0
  3  2  1  0  0  0
  2  1  1  0  0  0
  1 11  1  0  0  0
 11 12  1  0  0  0
 12 13  2  0  0  0
 13 14  1  0  0  0
 14 15  1  0  0  0
 15 16  1  0  0  0
 16 17  1  0  0  0
 17 18  1  0  0  0
 18 19  1  0  0  0
  9 10  1  0  0  0
M  END
> <minimizedAffinity>
-6.76810

> <CNNscore>
0.6684752703

> <CNNaffinity>
6.4976053238

> <CNN_VS>
4.3434886932

> <CNNaffinity_variance>
0.3556117415

$$$$



 19 18  0  0  0  0  0  0  0  0999 V2000
  -48.5318   59.9944   64.8416 C   0  0  0  0  0  0  0  0  0  0  0  0
  -49.4277   58.8330   64.4342 C   0  0  0  0  0  0  0  0  0  0  0  0
  -50.8929   59.2273   64.3578 C   0  0  0  0  0  0  0  0  0  0  0  0
  -51.3514   59.2634   62.9092 C   0  0  0  0  0  0  0  0  0  0  0  0
  -50.5378   58.2621   62.1093 C   0  0  0  0  0  0  0  0  0  0  0  0
  -49.8813   58.9078   60.8994 C   0  0  0  0  0  0  0  0  0  0  0  0
  -49.2341   57.8364   60.0574 C   0  0  0  0  0  0  0  0  0  0  0  0
  -49.5146   56.6371   60.2490 O   0  0  0  0  0  0  0  0  0  0  0  0
  -48.4096   58.1251   59.1643 O   0  0  0  0  0  0  0  0  0  0  0  0
  -48.1857   59.0210   59.0051 H   0  0  0  0  0  0  0  0  0  0  0  0
  -47.9281   59.6441   66.1939 C   0  0  0  0  0  0  0  0  0  0  0  0
  -47.8610   58.1508   66.4064 C   0  0  0  0  0  0  0  0  0  0  0  0
  -46.5813   57.4466   66.2279 C   0  0  0  0  0  0  0  0  0  0  0  0
  -45.4160   58.1902   65.6250 C   0  0  0  0  0  0  0  0  0  0  0  0
  -44.1072   57.7681   66.2837 C   0  0  0  0  0  0  0  0  0  0  0  0
  -43.3254   58.9978   66.7451 C   0  0  0  0  0  0  0  0  0  0  0  0
  -41.8594   58.9283   66.3202 C   0  0  0  0  0  0  0  0  0  0  0  0
  -41.5713   57.6921   65.4645 C   0  0  0  0  0  0  0  0  0  0  0  0
  -40.5597   57.9609   64.3535 C   0  0  0  0  0  0  0  0  0  0  0  0
  7  8  2  0  0  0
  7  6  1  0  0  0
  7  9  1  0  0  0
  6  5  1  0  0  0
  5  4  1  0  0  0
  4  3  1  0  0  0
  3  2  1  0  0  0
  2  1  1  0  0  0
  1 11  1  0  0  0
 11 12  1  0  0  0
 12 13  2  0  0  0
 13 14  1  0  0  0
 14 15  1  0  0  0
 15 16  1  0  0  0
 16 17  1  0  0  0
 17 18  1  0  0  0
 18 19  1  0  0  0
  9 10  1  0  0  0
M  END
> <minimizedAffinity>
-6.21225

> <CNNscore>
0.6440615058

> <CNNaffinity>
6.3392739296

> <CNN_VS>
4.0828824043

> <CNNaffinity_variance>
0.3194177747

$$$$
