


 19 18  0  0  0  0  0  0  0  0999 V2000
  -50.4669   58.1109   62.2440 C   0  0  0  0  0  0  0  0  0  0  0  0
  -50.9167   57.5097   60.9196 C   0  0  0  0  0  0  0  0  0  0  0  0
  -49.7541   57.2330   59.9815 C   0  0  0  0  0  0  0  0  0  0  0  0
  -49.9780   57.9298   58.6494 C   0  0  0  0  0  0  0  0  0  0  0  0
  -48.6607   57.9915   57.8975 C   0  0  0  0  0  0  0  0  0  0  0  0
  -48.6171   56.9903   56.7540 C   0  0  0  0  0  0  0  0  0  0  0  0
  -47.2329   56.3968   56.6690 C   0  0  0  0  0  0  0  0  0  0  0  0
  -46.2319   57.1199   56.8386 O   0  0  0  0  0  0  0  0  0  0  0  0
  -47.0629   55.1833   56.4252 O   0  0  0  0  0  0  0  0  0  0  0  0
  -47.8028   54.6235   56.2947 H   0  0  0  0  0  0  0  0  0  0  0  0
  -50.6558   59.6174   62.1413 C   0  0  0  0  0  0  0  0  0  0  0  0
  -51.7382   60.1100   63.0717 C   0  0  0  0  0  0  0  0  0  0  0  0
  -51.4000   60.4649   64.4591 C   0  0  0  0  0  0  0  0  0  0  0  0
  -50.0294   60.1232   64.9874 C   0  0  0  0  0  0  0  0  0  0  0  0
  -50.1138   59.0144   66.0305 C   0  0  0  0  0  0  0  0  0  0  0  0
  -48.7137   58.5191   66.3921 C   0  0  0  0  0  0  0  0  0  0  0  0
  -48.3369   57.2643   65.6058 C   0  0  0  0  0  0  0  0  0  0  0  0
  -47.0149   56.6632   66.0899 C   0  0  0  0  0  0  0  0  0  0  0  0
  -46.5455   57.2515   67.4178 C   0  0  0  0  0  0  0  0  0  0  0  0
  7  8  2  0  0  0
  7  6  1  0  0  0
  7  9  1  0  0  0
  6  5  1  0  0  0
  5  4  1  0  0  0
  4  3  1  0  0  0
  3  2  1  0  0  0
  2  1  1  0  0  0
  1 11  1  0  0  0
 11 12  1  0  0  0
 12 13  2  0  0  0
 13 14  1  0  0  0
 14 15  1  0  0  0
 15 16  1  0  0  0
 16 17  1  0  0  0
 17 18  1  0  0  0
 18 19  1  0  0  0
  9 10  1  0  0  0
M  END
> <minimizedAffinity>
-7.44660

> <CNNscore>
0.7488226891

> <CNNaffinity>
6.2232027054

> <CNN_VS>
4.6600751877

> <CNNaffinity_variance>
0.1083925962

$$$$



 19 18  0  0  0  0  0  0  0  0999 V2000
  -51.6236   60.1081   63.2292 C   0  0  0  0  0  0  0  0  0  0  0  0
  -50.6233   60.4878   64.3123 C   0  0  0  0  0  0  0  0  0  0  0  0
  -50.7994   59.6690   65.5799 C   0  0  0  0  0  0  0  0  0  0  0  0
  -49.5049   58.9508   65.9241 C   0  0  0  0  0  0  0  0  0  0  0  0
  -48.6219   59.8852   66.7312 C   0  0  0  0  0  0  0  0  0  0  0  0
  -47.2432   60.0361   66.1081 C   0  0  0  0  0  0  0  0  0  0  0  0
  -46.2733   59.1332   66.8289 C   0  0  0  0  0  0  0  0  0  0  0  0
  -45.1759   58.8532   66.3083 O   0  0  0  0  0  0  0  0  0  0  0  0
  -46.5484   58.6493   67.9474 O   0  0  0  0  0  0  0  0  0  0  0  0
  -47.3683   58.8480   68.3550 H   0  0  0  0  0  0  0  0  0  0  0  0
  -50.9099   59.1701   62.2666 C   0  0  0  0  0  0  0  0  0  0  0  0
  -49.5317   59.6749   61.9125 C   0  0  0  0  0  0  0  0  0  0  0  0
  -49.0777   59.6320   60.5134 C   0  0  0  0  0  0  0  0  0  0  0  0
  -49.9072   58.8862   59.4985 C   0  0  0  0  0  0  0  0  0  0  0  0
  -49.0165   58.2390   58.4438 C   0  0  0  0  0  0  0  0  0  0  0  0
  -47.6169   58.8522   58.4833 C   0  0  0  0  0  0  0  0  0  0  0  0
  -46.7324   58.3160   57.3587 C   0  0  0  0  0  0  0  0  0  0  0  0
  -47.4492   57.2476   56.5291 C   0  0  0  0  0  0  0  0  0  0  0  0
  -46.9485   55.8351   56.8190 C   0  0  0  0  0  0  0  0  0  0  0  0
  7  8  2  0  0  0
  7  6  1  0  0  0
  7  9  1  0  0  0
  6  5  1  0  0  0
  5  4  1  0  0  0
  4  3  1  0  0  0
  3  2  1  0  0  0
  2  1  1  0  0  0
  1 11  1  0  0  0
 11 12  1  0  0  0
 12 13  2  0  0  0
 13 14  1  0  0  0
 14 15  1  0  0  0
 15 16  1  0  0  0
 16 17  1  0  0  0
 17 18  1  0  0  0
 18 19  1  0  0  0
  9 10  1  0  0  0
M  END
> <minimizedAffinity>
-6.86369

> <CNNscore>
0.6963922977

> <CNNaffinity>
5.9719381332

> <CNN_VS>
4.1588115692

> <CNNaffinity_variance>
0.1207800880

$$$$



 19 18  0  0  0  0  0  0  0  0999 V2000
  -51.3633   60.3009   63.9621 C   0  0  0  0  0  0  0  0  0  0  0  0
  -50.0936   59.9176   64.7096 C   0  0  0  0  0  0  0  0  0  0  0  0
  -50.3812   59.3190   66.0761 C   0  0  0  0  0  0  0  0  0  0  0  0
  -49.8902   57.8817   66.1327 C   0  0  0  0  0  0  0  0  0  0  0  0
  -48.4989   57.8116   65.5294 C   0  0  0  0  0  0  0  0  0  0  0  0
  -47.6611   56.7169   66.1708 C   0  0  0  0  0  0  0  0  0  0  0  0
  -46.6441   57.3468   67.0897 C   0  0  0  0  0  0  0  0  0  0  0  0
  -46.7680   58.5380   67.4355 O   0  0  0  0  0  0  0  0  0  0  0  0
  -45.6653   56.6969   67.5146 O   0  0  0  0  0  0  0  0  0  0  0  0
  -45.5548   55.8003   67.2659 H   0  0  0  0  0  0  0  0  0  0  0  0
  -51.2358   59.7527   62.5482 C   0  0  0  0  0  0  0  0  0  0  0  0
  -50.5091   58.4294   62.5249 C   0  0  0  0  0  0  0  0  0  0  0  0
  -49.6277   58.1024   61.3928 C   0  0  0  0  0  0  0  0  0  0  0  0
  -49.6376   58.9953   60.1775 C   0  0  0  0  0  0  0  0  0  0  0  0
  -50.0528   58.2132   58.9362 C   0  0  0  0  0  0  0  0  0  0  0  0
  -48.8489   57.9946   58.0202 C   0  0  0  0  0  0  0  0  0  0  0  0
  -47.7158   58.9709   58.3324 C   0  0  0  0  0  0  0  0  0  0  0  0
  -46.3457   58.3868   57.9788 C   0  0  0  0  0  0  0  0  0  0  0  0
  -46.4294   57.2425   56.9720 C   0  0  0  0  0  0  0  0  0  0  0  0
  7  8  2  0  0  0
  7  6  1  0  0  0
  7  9  1  0  0  0
  6  5  1  0  0  0
  5  4  1  0  0  0
  4  3  1  0  0  0
  3  2  1  0  0  0
  2  1  1  0  0  0
  1 11  1  0  0  0
 11 12  1  0  0  0
 12 13  2  0  0  0
 13 14  1  0  0  0
 14 15  1  0  0  0
 15 16  1  0  0  0
 16 17  1  0  0  0
 17 18  1  0  0  0
 18 19  1  0  0  0
  9 10  1  0  0  0
M  END
> <minimizedAffinity>
-7.22738

> <CNNscore>
0.6129533052

> <CNNaffinity>
6.0100784302

> <CNN_VS>
3.6838974953

> <CNNaffinity_variance>
0.2372939587

$$$$



 19 18  0  0  0  0  0  0  0  0999 V2000
  -48.7530   56.9744   57.1545 C   0  0  0  0  0  0  0  0  0  0  0  0
  -47.6242   57.8478   56.6246 C   0  0  0  0  0  0  0  0  0  0  0  0
  -46.3111   57.6046   57.3490 C   0  0  0  0  0  0  0  0  0  0  0  0
  -46.2155   58.4979   58.5750 C   0  0  0  0  0  0  0  0  0  0  0  0
  -45.8409   57.6485   59.7761 C   0  0  0  0  0  0  0  0  0  0  0  0
  -46.2020   58.3329   61.0849 C   0  0  0  0  0  0  0  0  0  0  0  0
  -45.0060   59.1032   61.5865 C   0  0  0  0  0  0  0  0  0  0  0  0
  -43.9621   58.4996   61.9025 O   0  0  0  0  0  0  0  0  0  0  0  0
  -45.0379   60.3471   61.6989 O   0  0  0  0  0  0  0  0  0  0  0  0
  -45.8134   60.8187   61.4665 H   0  0  0  0  0  0  0  0  0  0  0  0
  -49.4250   57.7433   58.2828 C   0  0  0  0  0  0  0  0  0  0  0  0
  -49.5393   56.9101   59.5368 C   0  0  0  0  0  0  0  0  0  0  0  0
  -49.9911   57.5371   60.7890 C   0  0  0  0  0  0  0  0  0  0  0  0
  -50.1197   59.0385   60.8495 C   0  0  0  0  0  0  0  0  0  0  0  0
  -49.5712   59.5747   62.1673 C   0  0  0  0  0  0  0  0  0  0  0  0
  -50.2613   58.8895   63.3465 C   0  0  0  0  0  0  0  0  0  0  0  0
  -50.9857   59.8951   64.2402 C   0  0  0  0  0  0  0  0  0  0  0  0
  -50.6031   59.7288   65.7130 C   0  0  0  0  0  0  0  0  0  0  0  0
  -50.0802   58.3318   66.0371 C   0  0  0  0  0  0  0  0  0  0  0  0
  7  8  2  0  0  0
  7  6  1  0  0  0
  7  9  1  0  0  0
  6  5  1  0  0  0
  5  4  1  0  0  0
  4  3  1  0  0  0
  3  2  1  0  0  0
  2  1  1  0  0  0
  1 11  1  0  0  0
 11 12  1  0  0  0
 12 13  2  0  0  0
 13 14  1  0  0  0
 14 15  1  0  0  0
 15 16  1  0  0  0
 16 17  1  0  0  0
 17 18  1  0  0  0
 18 19  1  0  0  0
  9 10  1  0  0  0
M  END
> <minimizedAffinity>
-6.45108

> <CNNscore>
0.5368937254

> <CNNaffinity>
5.7941560745

> <CNN_VS>
3.1108460426

> <CNNaffinity_variance>
0.0551608317

$$$$



 19 18  0  0  0  0  0  0  0  0999 V2000
  -50.7472   57.3890   60.4986 C   0  0  0  0  0  0  0  0  0  0  0  0
  -50.1527   58.2331   59.3797 C   0  0  0  0  0  0  0  0  0  0  0  0
  -48.6511   58.0461   59.2447 C   0  0  0  0  0  0  0  0  0  0  0  0
  -48.0275   59.2674   58.5892 C   0  0  0  0  0  0  0  0  0  0  0  0
  -46.9618   58.8110   57.6091 C   0  0  0  0  0  0  0  0  0  0  0  0
  -46.6449   57.3326   57.7692 C   0  0  0  0  0  0  0  0  0  0  0  0
  -47.2173   56.5745   56.5974 C   0  0  0  0  0  0  0  0  0  0  0  0
  -46.9469   55.3676   56.4422 O   0  0  0  0  0  0  0  0  0  0  0  0
  -47.9618   57.1349   55.7652 O   0  0  0  0  0  0  0  0  0  0  0  0
  -48.1767   58.0415   55.8647 H   0  0  0  0  0  0  0  0  0  0  0  0
  -50.2429   57.9656   61.8135 C   0  0  0  0  0  0  0  0  0  0  0  0
  -51.0840   59.1328   62.2716 C   0  0  0  0  0  0  0  0  0  0  0  0
  -50.9073   59.6688   63.6306 C   0  0  0  0  0  0  0  0  0  0  0  0
  -50.0505   58.9074   64.6107 C   0  0  0  0  0  0  0  0  0  0  0  0
  -50.2400   59.4452   66.0248 C   0  0  0  0  0  0  0  0  0  0  0  0
  -48.8897   59.8225   66.6337 C   0  0  0  0  0  0  0  0  0  0  0  0
  -48.0695   60.7012   65.6904 C   0  0  0  0  0  0  0  0  0  0  0  0
  -46.6390   60.1815   65.5260 C   0  0  0  0  0  0  0  0  0  0  0  0
  -45.9437   60.7372   64.2859 C   0  0  0  0  0  0  0  0  0  0  0  0
  7  8  2  0  0  0
  7  6  1  0  0  0
  7  9  1  0  0  0
  6  5  1  0  0  0
  5  4  1  0  0  0
  4  3  1  0  0  0
  3  2  1  0  0  0
  2  1  1  0  0  0
  1 11  1  0  0  0
 11 12  1  0  0  0
 12 13  2  0  0  0
 13 14  1  0  0  0
 14 15  1  0  0  0
 15 16  1  0  0  0
 16 17  1  0  0  0
 17 18  1  0  0  0
 18 19  1  0  0  0
  9 10  1  0  0  0
M  END
> <minimizedAffinity>
-7.14242

> <CNNscore>
0.5160185695

> <CNNaffinity>
5.8957567215

> <CNN_VS>
3.0423200130

> <CNNaffinity_variance>
0.0263898261

$$$$



 19 18  0  0  0  0  0  0  0  0999 V2000
  -46.8674   61.1637   61.1047 C   0  0  0  0  0  0  0  0  0  0  0  0
  -46.6351   61.1974   62.6089 C   0  0  0  0  0  0  0  0  0  0  0  0
  -45.4212   62.0268   62.9918 C   0  0  0  0  0  0  0  0  0  0  0  0
  -44.7280   62.5486   61.7439 C   0  0  0  0  0  0  0  0  0  0  0  0
  -43.2256   62.4912   61.9537 C   0  0  0  0  0  0  0  0  0  0  0  0
  -42.8655   61.8178   63.2685 C   0  0  0  0  0  0  0  0  0  0  0  0
  -41.6358   60.9675   63.0680 C   0  0  0  0  0  0  0  0  0  0  0  0
  -40.8377   60.7920   64.0093 O   0  0  0  0  0  0  0  0  0  0  0  0
  -41.3920   60.4316   61.9661 O   0  0  0  0  0  0  0  0  0  0  0  0
  -41.9799   60.5518   61.2464 H   0  0  0  0  0  0  0  0  0  0  0  0
  -47.0228   59.7033   60.7060 C   0  0  0  0  0  0  0  0  0  0  0  0
  -45.7615   58.9152   60.9664 C   0  0  0  0  0  0  0  0  0  0  0  0
  -45.4119   57.7889   60.0863 C   0  0  0  0  0  0  0  0  0  0  0  0
  -46.4257   57.3063   59.0795 C   0  0  0  0  0  0  0  0  0  0  0  0
  -46.3784   58.1573   57.8152 C   0  0  0  0  0  0  0  0  0  0  0  0
  -47.7057   58.0631   57.0631 C   0  0  0  0  0  0  0  0  0  0  0  0
  -48.7685   57.3305   57.8806 C   0  0  0  0  0  0  0  0  0  0  0  0
  -49.7051   58.3034   58.6013 C   0  0  0  0  0  0  0  0  0  0  0  0
  -50.2610   57.7374   59.9054 C   0  0  0  0  0  0  0  0  0  0  0  0
  7  8  2  0  0  0
  7  6  1  0  0  0
  7  9  1  0  0  0
  6  5  1  0  0  0
  5  4  1  0  0  0
  4  3  1  0  0  0
  3  2  1  0  0  0
  2  1  1  0  0  0
  1 11  1  0  0  0
 11 12  1  0  0  0
 12 13  2  0  0  0
 13 14  1  0  0  0
 14 15  1  0  0  0
 15 16  1  0  0  0
 16 17  1  0  0  0
 17 18  1  0  0  0
 18 19  1  0  0  0
  9 10  1  0  0  0
M  END
> <minimizedAffinity>
-6.18975

> <CNNscore>
0.4640235603

> <CNNaffinity>
5.5125193596

> <CNN_VS>
2.5579388142

> <CNNaffinity_variance>
0.0112187751

$$$$



 19 18  0  0  0  0  0  0  0  0999 V2000
  -46.5809   57.0215   56.8611 C   0  0  0  0  0  0  0  0  0  0  0  0
  -46.4023   58.2770   57.7033 C   0  0  0  0  0  0  0  0  0  0  0  0
  -45.8208   57.9797   59.0751 C   0  0  0  0  0  0  0  0  0  0  0  0
  -46.3933   58.9383   60.1062 C   0  0  0  0  0  0  0  0  0  0  0  0
  -45.8897   58.5410   61.4821 C   0  0  0  0  0  0  0  0  0  0  0  0
  -44.8368   59.5089   61.9980 C   0  0  0  0  0  0  0  0  0  0  0  0
  -43.5828   58.7415   62.3358 C   0  0  0  0  0  0  0  0  0  0  0  0
  -42.7905   59.1846   63.1900 O   0  0  0  0  0  0  0  0  0  0  0  0
  -43.3131   57.6609   61.7697 O   0  0  0  0  0  0  0  0  0  0  0  0
  -43.8962   57.3115   61.1249 H   0  0  0  0  0  0  0  0  0  0  0  0
  -47.9634   56.4654   57.1699 C   0  0  0  0  0  0  0  0  0  0  0  0
  -47.9756   55.6819   58.4604 C   0  0  0  0  0  0  0  0  0  0  0  0
  -48.9322   56.0387   59.5201 C   0  0  0  0  0  0  0  0  0  0  0  0
  -49.7287   57.3124   59.3867 C   0  0  0  0  0  0  0  0  0  0  0  0
  -50.6113   57.5279   60.6113 C   0  0  0  0  0  0  0  0  0  0  0  0
  -50.0917   58.7033   61.4388 C   0  0  0  0  0  0  0  0  0  0  0  0
  -50.1728   58.4193   62.9380 C   0  0  0  0  0  0  0  0  0  0  0  0
  -50.6611   59.6387   63.7241 C   0  0  0  0  0  0  0  0  0  0  0  0
  -51.9564   60.2244   63.1682 C   0  0  0  0  0  0  0  0  0  0  0  0
  7  8  2  0  0  0
  7  6  1  0  0  0
  7  9  1  0  0  0
  6  5  1  0  0  0
  5  4  1  0  0  0
  4  3  1  0  0  0
  3  2  1  0  0  0
  2  1  1  0  0  0
  1 11  1  0  0  0
 11 12  1  0  0  0
 12 13  2  0  0  0
 13 14  1  0  0  0
 14 15  1  0  0  0
 15 16  1  0  0  0
 16 17  1  0  0  0
 17 18  1  0  0  0
 18 19  1  0  0  0
  9 10  1  0  0  0
M  END
> <minimizedAffinity>
-6.68679

> <CNNscore>
0.4565541148

> <CNNaffinity>
5.7406167984

> <CNN_VS>
2.6209022999

> <CNNaffinity_variance>
0.0692465231

$$$$



 19 18  0  0  0  0  0  0  0  0999 V2000
  -49.6881   58.0210   62.2453 C   0  0  0  0  0  0  0  0  0  0  0  0
  -51.0020   58.6988   61.8819 C   0  0  0  0  0  0  0  0  0  0  0  0
  -51.3922   59.7813   62.8740 C   0  0  0  0  0  0  0  0  0  0  0  0
  -50.2696   60.0056   63.8737 C   0  0  0  0  0  0  0  0  0  0  0  0
  -50.8329   59.9011   65.2795 C   0  0  0  0  0  0  0  0  0  0  0  0
  -50.2157   58.7443   66.0494 C   0  0  0  0  0  0  0  0  0  0  0  0
  -48.8044   59.1071   66.4397 C   0  0  0  0  0  0  0  0  0  0  0  0
  -47.8435   58.4591   65.9811 O   0  0  0  0  0  0  0  0  0  0  0  0
  -48.5724   60.0506   67.2251 O   0  0  0  0  0  0  0  0  0  0  0  0
  -49.2814   60.5496   67.5805 H   0  0  0  0  0  0  0  0  0  0  0  0
  -49.1896   57.3076   60.9970 C   0  0  0  0  0  0  0  0  0  0  0  0
  -49.9527   57.7349   59.7663 C   0  0  0  0  0  0  0  0  0  0  0  0
  -49.2902   58.5703   58.7521 C   0  0  0  0  0  0  0  0  0  0  0  0
  -47.9394   59.1642   59.0635 C   0  0  0  0  0  0  0  0  0  0  0  0
  -47.0495   59.1605   57.8254 C   0  0  0  0  0  0  0  0  0  0  0  0
  -46.2319   57.8705   57.7644 C   0  0  0  0  0  0  0  0  0  0  0  0
  -46.6530   56.9888   56.5896 C   0  0  0  0  0  0  0  0  0  0  0  0
  -47.2478   55.6587   57.0590 C   0  0  0  0  0  0  0  0  0  0  0  0
  -47.1624   55.4702   58.5714 C   0  0  0  0  0  0  0  0  0  0  0  0
  7  8  2  0  0  0
  7  6  1  0  0  0
  7  9  1  0  0  0
  6  5  1  0  0  0
  5  4  1  0  0  0
  4  3  1  0  0  0
  3  2  1  0  0  0
  2  1  1  0  0  0
  1 11  1  0  0  0
 11 12  1  0  0  0
 12 13  2  0  0  0
 13 14  1  0  0  0
 14 15  1  0  0  0
 15 16  1  0  0  0
 16 17  1  0  0  0
 17 18  1  0  0  0
 18 19  1  0  0  0
  9 10  1  0  0  0
M  END
> <minimizedAffinity>
-7.41311

> <CNNscore>
0.4270135462

> <CNNaffinity>
5.8036704063

> <CNN_VS>
2.4782459736

> <CNNaffinity_variance>
0.0284730233

$$$$



 19 18  0  0  0  0  0  0  0  0999 V2000
  -48.3186   60.5226   61.0694 C   0  0  0  0  0  0  0  0  0  0  0  0
  -47.2700   60.6249   59.9705 C   0  0  0  0  0  0  0  0  0  0  0  0
  -47.5542   59.6913   58.8061 C   0  0  0  0  0  0  0  0  0  0  0  0
  -46.4823   58.6172   58.7216 C   0  0  0  0  0  0  0  0  0  0  0  0
  -46.4950   58.0162   57.3276 C   0  0  0  0  0  0  0  0  0  0  0  0
  -47.7928   57.2764   57.0447 C   0  0  0  0  0  0  0  0  0  0  0  0
  -47.5716   55.7972   57.2409 C   0  0  0  0  0  0  0  0  0  0  0  0
  -48.0621   55.2181   58.2297 O   0  0  0  0  0  0  0  0  0  0  0  0
  -46.8962   55.1304   56.4284 O   0  0  0  0  0  0  0  0  0  0  0  0
  -46.5193   55.5476   55.6789 H   0  0  0  0  0  0  0  0  0  0  0  0
  -49.5183   59.7952   60.4800 C   0  0  0  0  0  0  0  0  0  0  0  0
  -49.9248   58.6113   61.3244 C   0  0  0  0  0  0  0  0  0  0  0  0
  -50.9415   58.7806   62.3746 C   0  0  0  0  0  0  0  0  0  0  0  0
  -51.3963   60.1730   62.7336 C   0  0  0  0  0  0  0  0  0  0  0  0
  -51.4228   60.3590   64.2468 C   0  0  0  0  0  0  0  0  0  0  0  0
  -50.0871   59.9340   64.8565 C   0  0  0  0  0  0  0  0  0  0  0  0
  -50.2746   58.8957   65.9616 C   0  0  0  0  0  0  0  0  0  0  0  0
  -49.0799   57.9434   66.0584 C   0  0  0  0  0  0  0  0  0  0  0  0
  -48.3700   57.7428   64.7220 C   0  0  0  0  0  0  0  0  0  0  0  0
  7  8  2  0  0  0
  7  6  1  0  0  0
  7  9  1  0  0  0
  6  5  1  0  0  0
  5  4  1  0  0  0
  4  3  1  0  0  0
  3  2  1  0  0  0
  2  1  1  0  0  0
  1 11  1  0  0  0
 11 12  1  0  0  0
 12 13  2  0  0  0
 13 14  1  0  0  0
 14 15  1  0  0  0
 15 16  1  0  0  0
 16 17  1  0  0  0
 17 18  1  0  0  0
 18 19  1  0  0  0
  9 10  1  0  0  0
M  END
> <minimizedAffinity>
-7.37384

> <CNNscore>
0.4074266255

> <CNNaffinity>
5.8461270332

> <CNN_VS>
2.3818678856

> <CNNaffinity_variance>
0.0984955505

$$$$
