


 19 18  0  0  0  0  0  0  0  0999 V2000
  -51.4058   58.9001   62.5040 C   0  0  0  0  0  0  0  0  0  0  0  0
  -51.2266   57.7463   61.5271 C   0  0  0  0  0  0  0  0  0  0  0  0
  -50.3391   58.1131   60.3498 C   0  0  0  0  0  0  0  0  0  0  0  0
  -49.0408   57.3250   60.4064 C   0  0  0  0  0  0  0  0  0  0  0  0
  -48.9411   56.4492   59.1705 C   0  0  0  0  0  0  0  0  0  0  0  0
  -47.7796   56.8611   58.2800 C   0  0  0  0  0  0  0  0  0  0  0  0
  -47.8472   56.0848   56.9884 C   0  0  0  0  0  0  0  0  0  0  0  0
  -47.8684   54.8386   57.0092 O   0  0  0  0  0  0  0  0  0  0  0  0
  -47.8781   56.6676   55.8838 O   0  0  0  0  0  0  0  0  0  0  0  0
  -47.8630   57.6037   55.8474 H   0  0  0  0  0  0  0  0  0  0  0  0
  -50.1197   59.0111   63.3099 C   0  0  0  0  0  0  0  0  0  0  0  0
  -50.3534   58.7386   64.7764 C   0  0  0  0  0  0  0  0  0  0  0  0
  -49.4945   59.3829   65.7827 C   0  0  0  0  0  0  0  0  0  0  0  0
  -48.2643   60.1258   65.3256 C   0  0  0  0  0  0  0  0  0  0  0  0
  -47.0331   59.6547   66.0919 C   0  0  0  0  0  0  0  0  0  0  0  0
  -46.2018   58.7066   65.2279 C   0  0  0  0  0  0  0  0  0  0  0  0
  -45.7363   57.4837   66.0168 C   0  0  0  0  0  0  0  0  0  0  0  0
  -46.7872   57.0252   67.0311 C   0  0  0  0  0  0  0  0  0  0  0  0
  -47.7898   56.0363   66.4422 C   0  0  0  0  0  0  0  0  0  0  0  0
  7  8  2  0  0  0
  7  6  1  0  0  0
  7  9  1  0  0  0
  6  5  1  0  0  0
  5  4  1  0  0  0
  4  3  1  0  0  0
  3  2  1  0  0  0
  2  1  1  0  0  0
  1 11  1  0  0  0
 11 12  1  0  0  0
 12 13  2  0  0  0
 13 14  1  0  0  0
 14 15  1  0  0  0
 15 16  1  0  0  0
 16 17  1  0  0  0
 17 18  1  0  0  0
 18 19  1  0  0  0
  9 10  1  0  0  0
M  END
> <minimizedAffinity>
-7.33931

> <CNNscore>
0.8409198523

> <CNNaffinity>
6.5169410706

> <CNN_VS>
5.4802250862

> <CNNaffinity_variance>
0.4073716998

$$$$



 19 18  0  0  0  0  0  0  0  0999 V2000
  -45.1290   59.3176   65.3707 C   0  0  0  0  0  0  0  0  0  0  0  0
  -44.6507   58.8894   66.7511 C   0  0  0  0  0  0  0  0  0  0  0  0
  -43.1362   58.8999   66.8714 C   0  0  0  0  0  0  0  0  0  0  0  0
  -42.5310   57.8397   65.9660 C   0  0  0  0  0  0  0  0  0  0  0  0
  -41.1290   58.2687   65.5728 C   0  0  0  0  0  0  0  0  0  0  0  0
  -40.8713   59.7288   65.9093 C   0  0  0  0  0  0  0  0  0  0  0  0
  -39.4256   60.0537   65.6265 C   0  0  0  0  0  0  0  0  0  0  0  0
  -38.8019   59.4185   64.7540 O   0  0  0  0  0  0  0  0  0  0  0  0
  -38.8289   60.9524   66.2567 O   0  0  0  0  0  0  0  0  0  0  0  0
  -39.2806   61.4410   66.9164 H   0  0  0  0  0  0  0  0  0  0  0  0
  -46.0169   58.2032   64.8365 C   0  0  0  0  0  0  0  0  0  0  0  0
  -46.8077   57.5409   65.9391 C   0  0  0  0  0  0  0  0  0  0  0  0
  -48.2639   57.3834   65.7974 C   0  0  0  0  0  0  0  0  0  0  0  0
  -48.9667   58.0792   64.6589 C   0  0  0  0  0  0  0  0  0  0  0  0
  -50.1264   58.9236   65.1757 C   0  0  0  0  0  0  0  0  0  0  0  0
  -51.0125   59.3742   64.0146 C   0  0  0  0  0  0  0  0  0  0  0  0
  -50.4534   58.9202   62.6670 C   0  0  0  0  0  0  0  0  0  0  0  0
  -51.4586   58.0653   61.8911 C   0  0  0  0  0  0  0  0  0  0  0  0
  -50.8245   57.3170   60.7215 C   0  0  0  0  0  0  0  0  0  0  0  0
  7  8  2  0  0  0
  7  6  1  0  0  0
  7  9  1  0  0  0
  6  5  1  0  0  0
  5  4  1  0  0  0
  4  3  1  0  0  0
  3  2  1  0  0  0
  2  1  1  0  0  0
  1 11  1  0  0  0
 11 12  1  0  0  0
 12 13  2  0  0  0
 13 14  1  0  0  0
 14 15  1  0  0  0
 15 16  1  0  0  0
 16 17  1  0  0  0
 17 18  1  0  0  0
 18 19  1  0  0  0
  9 10  1  0  0  0
M  END
> <minimizedAffinity>
-6.64605

> <CNNscore>
0.8310164213

> <CNNaffinity>
6.3664832115

> <CNN_VS>
5.2906522751

> <CNNaffinity_variance>
0.2870858312

$$$$



 19 18  0  0  0  0  0  0  0  0999 V2000
  -43.3232   59.0733   66.8893 C   0  0  0  0  0  0  0  0  0  0  0  0
  -42.2152   58.3789   66.1097 C   0  0  0  0  0  0  0  0  0  0  0  0
  -41.6181   59.2669   65.0312 C   0  0  0  0  0  0  0  0  0  0  0  0
  -40.2981   58.6891   64.5477 C   0  0  0  0  0  0  0  0  0  0  0  0
  -39.2749   58.7950   65.6641 C   0  0  0  0  0  0  0  0  0  0  0  0
  -37.9003   59.1719   65.1348 C   0  0  0  0  0  0  0  0  0  0  0  0
  -37.6316   60.6234   65.4455 C   0  0  0  0  0  0  0  0  0  0  0  0
  -38.3213   61.2178   66.2969 O   0  0  0  0  0  0  0  0  0  0  0  0
  -36.7261   61.2539   64.8596 O   0  0  0  0  0  0  0  0  0  0  0  0
  -36.1969   60.8245   64.2164 H   0  0  0  0  0  0  0  0  0  0  0  0
  -44.5627   59.0729   66.0065 C   0  0  0  0  0  0  0  0  0  0  0  0
  -45.7186   58.3592   66.6656 C   0  0  0  0  0  0  0  0  0  0  0  0
  -47.0970   58.7891   66.3821 C   0  0  0  0  0  0  0  0  0  0  0  0
  -47.3203   60.0682   65.6151 C   0  0  0  0  0  0  0  0  0  0  0  0
  -48.4232   59.8900   64.5774 C   0  0  0  0  0  0  0  0  0  0  0  0
  -48.3099   58.5176   63.9140 C   0  0  0  0  0  0  0  0  0  0  0  0
  -49.5280   58.2068   63.0456 C   0  0  0  0  0  0  0  0  0  0  0  0
  -50.8270   58.7019   63.6866 C   0  0  0  0  0  0  0  0  0  0  0  0
  -51.6017   59.6658   62.7916 C   0  0  0  0  0  0  0  0  0  0  0  0
  7  8  2  0  0  0
  7  6  1  0  0  0
  7  9  1  0  0  0
  6  5  1  0  0  0
  5  4  1  0  0  0
  4  3  1  0  0  0
  3  2  1  0  0  0
  2  1  1  0  0  0
  1 11  1  0  0  0
 11 12  1  0  0  0
 12 13  2  0  0  0
 13 14  1  0  0  0
 14 15  1  0  0  0
 15 16  1  0  0  0
 16 17  1  0  0  0
 17 18  1  0  0  0
 18 19  1  0  0  0
  9 10  1  0  0  0
M  END
> <minimizedAffinity>
-6.38506

> <CNNscore>
0.8115673661

> <CNNaffinity>
6.2744779587

> <CNN_VS>
5.0921616554

> <CNNaffinity_variance>
0.4218838215

$$$$



 19 18  0  0  0  0  0  0  0  0999 V2000
  -50.6259   59.1103   64.3304 C   0  0  0  0  0  0  0  0  0  0  0  0
  -50.0084   58.2837   65.4498 C   0  0  0  0  0  0  0  0  0  0  0  0
  -48.5668   57.8998   65.1624 C   0  0  0  0  0  0  0  0  0  0  0  0
  -48.0990   56.8428   66.1492 C   0  0  0  0  0  0  0  0  0  0  0  0
  -46.6151   57.0318   66.4079 C   0  0  0  0  0  0  0  0  0  0  0  0
  -46.2868   58.4684   66.7822 C   0  0  0  0  0  0  0  0  0  0  0  0
  -44.8994   58.8021   66.2932 C   0  0  0  0  0  0  0  0  0  0  0  0
  -44.6466   58.7855   65.0727 O   0  0  0  0  0  0  0  0  0  0  0  0
  -43.9843   59.0942   67.0921 O   0  0  0  0  0  0  0  0  0  0  0  0
  -44.1547   59.1121   68.0133 H   0  0  0  0  0  0  0  0  0  0  0  0
  -50.2089   58.4689   63.0149 C   0  0  0  0  0  0  0  0  0  0  0  0
  -51.3673   58.3634   62.0522 C   0  0  0  0  0  0  0  0  0  0  0  0
  -51.2625   57.4788   60.8809 C   0  0  0  0  0  0  0  0  0  0  0  0
  -49.9260   56.8659   60.5454 C   0  0  0  0  0  0  0  0  0  0  0  0
  -49.3147   57.5403   59.3221 C   0  0  0  0  0  0  0  0  0  0  0  0
  -47.7890   57.4730   59.3868 C   0  0  0  0  0  0  0  0  0  0  0  0
  -47.1635   57.4647   57.9928 C   0  0  0  0  0  0  0  0  0  0  0  0
  -47.9300   56.5555   57.0289 C   0  0  0  0  0  0  0  0  0  0  0  0
  -47.4690   55.1016   57.0897 C   0  0  0  0  0  0  0  0  0  0  0  0
  7  8  2  0  0  0
  7  6  1  0  0  0
  7  9  1  0  0  0
  6  5  1  0  0  0
  5  4  1  0  0  0
  4  3  1  0  0  0
  3  2  1  0  0  0
  2  1  1  0  0  0
  1 11  1  0  0  0
 11 12  1  0  0  0
 12 13  2  0  0  0
 13 14  1  0  0  0
 14 15  1  0  0  0
 15 16  1  0  0  0
 16 17  1  0  0  0
 17 18  1  0  0  0
 18 19  1  0  0  0
  9 10  1  0  0  0
M  END
> <minimizedAffinity>
-7.42389

> <CNNscore>
0.7729154229

> <CNNaffinity>
6.4989347458

> <CNN_VS>
5.0231270790

> <CNNaffinity_variance>
0.5784562230

$$$$



 19 18  0  0  0  0  0  0  0  0999 V2000
  -47.8961   59.0608   64.9444 C   0  0  0  0  0  0  0  0  0  0  0  0
  -46.4092   58.7804   65.1118 C   0  0  0  0  0  0  0  0  0  0  0  0
  -46.1184   57.3095   65.3572 C   0  0  0  0  0  0  0  0  0  0  0  0
  -45.1851   57.1508   66.5461 C   0  0  0  0  0  0  0  0  0  0  0  0
  -43.7500   57.2715   66.0662 C   0  0  0  0  0  0  0  0  0  0  0  0
  -42.9979   58.3654   66.8076 C   0  0  0  0  0  0  0  0  0  0  0  0
  -42.3406   59.2806   65.8047 C   0  0  0  0  0  0  0  0  0  0  0  0
  -41.2489   59.8193   66.0725 O   0  0  0  0  0  0  0  0  0  0  0  0
  -42.8727   59.5187   64.6997 O   0  0  0  0  0  0  0  0  0  0  0  0
  -43.6933   59.1233   64.4800 H   0  0  0  0  0  0  0  0  0  0  0  0
  -48.3288   58.4247   63.6314 C   0  0  0  0  0  0  0  0  0  0  0  0
  -49.8241   58.5036   63.4377 C   0  0  0  0  0  0  0  0  0  0  0  0
  -50.4106   58.1371   62.1388 C   0  0  0  0  0  0  0  0  0  0  0  0
  -49.4948   57.9021   60.9639 C   0  0  0  0  0  0  0  0  0  0  0  0
  -49.5578   56.4469   60.5129 C   0  0  0  0  0  0  0  0  0  0  0  0
  -48.5585   56.1984   59.3833 C   0  0  0  0  0  0  0  0  0  0  0  0
  -48.1878   57.4929   58.6610 C   0  0  0  0  0  0  0  0  0  0  0  0
  -47.1762   57.2500   57.5380 C   0  0  0  0  0  0  0  0  0  0  0  0
  -45.8152   57.8825   57.8171 C   0  0  0  0  0  0  0  0  0  0  0  0
  7  8  2  0  0  0
  7  6  1  0  0  0
  7  9  1  0  0  0
  6  5  1  0  0  0
  5  4  1  0  0  0
  4  3  1  0  0  0
  3  2  1  0  0  0
  2  1  1  0  0  0
  1 11  1  0  0  0
 11 12  1  0  0  0
 12 13  2  0  0  0
 13 14  1  0  0  0
 14 15  1  0  0  0
 15 16  1  0  0  0
 16 17  1  0  0  0
 17 18  1  0  0  0
 18 19  1  0  0  0
  9 10  1  0  0  0
M  END
> <minimizedAffinity>
-6.50198

> <CNNscore>
0.7493411303

> <CNNaffinity>
6.3382320404

> <CNN_VS>
4.7494978905

> <CNNaffinity_variance>
0.4930671751

$$$$



 19 18  0  0  0  0  0  0  0  0999 V2000
  -41.2683   59.3931   64.5577 C   0  0  0  0  0  0  0  0  0  0  0  0
  -40.3216   58.5969   65.4452 C   0  0  0  0  0  0  0  0  0  0  0  0
  -39.3589   57.7365   64.6445 C   0  0  0  0  0  0  0  0  0  0  0  0
  -37.9364   57.9431   65.1381 C   0  0  0  0  0  0  0  0  0  0  0  0
  -37.2299   58.9175   64.2130 C   0  0  0  0  0  0  0  0  0  0  0  0
  -36.5858   60.0594   64.9830 C   0  0  0  0  0  0  0  0  0  0  0  0
  -37.6323   61.1020   65.2887 C   0  0  0  0  0  0  0  0  0  0  0  0
  -38.3068   61.5991   64.3658 O   0  0  0  0  0  0  0  0  0  0  0  0
  -37.8391   61.4878   66.4588 O   0  0  0  0  0  0  0  0  0  0  0  0
  -37.3423   61.1260   67.1661 H   0  0  0  0  0  0  0  0  0  0  0  0
  -42.3414   59.9838   65.4606 C   0  0  0  0  0  0  0  0  0  0  0  0
  -42.5691   59.1346   66.6881 C   0  0  0  0  0  0  0  0  0  0  0  0
  -43.9200   58.6330   66.9863 C   0  0  0  0  0  0  0  0  0  0  0  0
  -45.0866   59.1555   66.1860 C   0  0  0  0  0  0  0  0  0  0  0  0
  -46.1345   58.0663   65.9850 C   0  0  0  0  0  0  0  0  0  0  0  0
  -46.6715   58.1051   64.5544 C   0  0  0  0  0  0  0  0  0  0  0  0
  -48.1043   58.6335   64.5022 C   0  0  0  0  0  0  0  0  0  0  0  0
  -48.9357   58.1465   65.6918 C   0  0  0  0  0  0  0  0  0  0  0  0
  -50.4235   58.4532   65.5423 C   0  0  0  0  0  0  0  0  0  0  0  0
  7  8  2  0  0  0
  7  6  1  0  0  0
  7  9  1  0  0  0
  6  5  1  0  0  0
  5  4  1  0  0  0
  4  3  1  0  0  0
  3  2  1  0  0  0
  2  1  1  0  0  0
  1 11  1  0  0  0
 11 12  1  0  0  0
 12 13  2  0  0  0
 13 14  1  0  0  0
 14 15  1  0  0  0
 15 16  1  0  0  0
 16 17  1  0  0  0
 17 18  1  0  0  0
 18 19  1  0  0  0
  9 10  1  0  0  0
M  END
> <minimizedAffinity>
-5.98523

> <CNNscore>
0.7383755445

> <CNNaffinity>
6.0395274162

> <CNN_VS>
4.4594392776

> <CNNaffinity_variance>
0.1710865796

$$$$



 19 18  0  0  0  0  0  0  0  0999 V2000
  -47.0697   59.5643   65.4187 C   0  0  0  0  0  0  0  0  0  0  0  0
  -46.4300   58.7784   66.5548 C   0  0  0  0  0  0  0  0  0  0  0  0
  -44.9122   58.8380   66.5212 C   0  0  0  0  0  0  0  0  0  0  0  0
  -44.4223   58.9161   65.0845 C   0  0  0  0  0  0  0  0  0  0  0  0
  -43.0429   59.5496   65.0675 C   0  0  0  0  0  0  0  0  0  0  0  0
  -42.0567   58.7757   65.9277 C   0  0  0  0  0  0  0  0  0  0  0  0
  -40.6798   59.3674   65.7554 C   0  0  0  0  0  0  0  0  0  0  0  0
  -39.7042   58.6243   65.5321 O   0  0  0  0  0  0  0  0  0  0  0  0
  -40.4900   60.5995   65.8367 O   0  0  0  0  0  0  0  0  0  0  0  0
  -41.2107   61.1745   66.0041 H   0  0  0  0  0  0  0  0  0  0  0  0
  -48.1072   58.6576   64.7728 C   0  0  0  0  0  0  0  0  0  0  0  0
  -49.2617   58.3764   65.7044 C   0  0  0  0  0  0  0  0  0  0  0  0
  -50.5289   59.1049   65.5343 C   0  0  0  0  0  0  0  0  0  0  0  0
  -50.5792   60.2699   64.5780 C   0  0  0  0  0  0  0  0  0  0  0  0
  -51.6341   60.0395   63.5014 C   0  0  0  0  0  0  0  0  0  0  0  0
  -50.9792   59.5278   62.2186 C   0  0  0  0  0  0  0  0  0  0  0  0
  -50.9065   58.0019   62.1903 C   0  0  0  0  0  0  0  0  0  0  0  0
  -51.3008   57.4371   60.8233 C   0  0  0  0  0  0  0  0  0  0  0  0
  -50.2920   57.7728   59.7281 C   0  0  0  0  0  0  0  0  0  0  0  0
  7  8  2  0  0  0
  7  6  1  0  0  0
  7  9  1  0  0  0
  6  5  1  0  0  0
  5  4  1  0  0  0
  4  3  1  0  0  0
  3  2  1  0  0  0
  2  1  1  0  0  0
  1 11  1  0  0  0
 11 12  1  0  0  0
 12 13  2  0  0  0
 13 14  1  0  0  0
 14 15  1  0  0  0
 15 16  1  0  0  0
 16 17  1  0  0  0
 17 18  1  0  0  0
 18 19  1  0  0  0
  9 10  1  0  0  0
M  END
> <minimizedAffinity>
-6.96905

> <CNNscore>
0.6999661326

> <CNNaffinity>
6.0760874748

> <CNN_VS>
4.2530555725

> <CNNaffinity_variance>
0.2167439461

$$$$



 19 18  0  0  0  0  0  0  0  0999 V2000
  -50.5675   58.6620   61.5425 C   0  0  0  0  0  0  0  0  0  0  0  0
  -51.0244   57.4799   60.6989 C   0  0  0  0  0  0  0  0  0  0  0  0
  -49.8610   56.6616   60.1653 C   0  0  0  0  0  0  0  0  0  0  0  0
  -48.5660   57.4473   60.2910 C   0  0  0  0  0  0  0  0  0  0  0  0
  -47.5419   56.8671   59.3324 C   0  0  0  0  0  0  0  0  0  0  0  0
  -48.0615   55.6159   58.6422 C   0  0  0  0  0  0  0  0  0  0  0  0
  -47.6745   55.6583   57.1848 C   0  0  0  0  0  0  0  0  0  0  0  0
  -48.0460   56.6075   56.4673 O   0  0  0  0  0  0  0  0  0  0  0  0
  -46.9856   54.7512   56.6715 O   0  0  0  0  0  0  0  0  0  0  0  0
  -46.6967   54.0294   57.1944 H   0  0  0  0  0  0  0  0  0  0  0  0
  -51.3823   58.6392   62.8276 C   0  0  0  0  0  0  0  0  0  0  0  0
  -51.1155   59.8562   63.6805 C   0  0  0  0  0  0  0  0  0  0  0  0
  -50.4071   59.7066   64.9616 C   0  0  0  0  0  0  0  0  0  0  0  0
  -50.1564   58.3205   65.5004 C   0  0  0  0  0  0  0  0  0  0  0  0
  -48.6643   58.0825   65.7051 C   0  0  0  0  0  0  0  0  0  0  0  0
  -47.8587   59.2528   65.1413 C   0  0  0  0  0  0  0  0  0  0  0  0
  -46.3602   59.0761   65.3819 C   0  0  0  0  0  0  0  0  0  0  0  0
  -45.7832   57.9191   64.5621 C   0  0  0  0  0  0  0  0  0  0  0  0
  -45.0518   56.8898   65.4197 C   0  0  0  0  0  0  0  0  0  0  0  0
  7  8  2  0  0  0
  7  6  1  0  0  0
  7  9  1  0  0  0
  6  5  1  0  0  0
  5  4  1  0  0  0
  4  3  1  0  0  0
  3  2  1  0  0  0
  2  1  1  0  0  0
  1 11  1  0  0  0
 11 12  1  0  0  0
 12 13  2  0  0  0
 13 14  1  0  0  0
 14 15  1  0  0  0
 15 16  1  0  0  0
 16 17  1  0  0  0
 17 18  1  0  0  0
 18 19  1  0  0  0
  9 10  1  0  0  0
M  END
> <minimizedAffinity>
-7.53677

> <CNNscore>
0.6990975738

> <CNNaffinity>
6.4310326576

> <CNN_VS>
4.4959192276

> <CNNaffinity_variance>
0.3894764483

$$$$



 19 18  0  0  0  0  0  0  0  0999 V2000
  -44.5539   59.1425   65.2653 C   0  0  0  0  0  0  0  0  0  0  0  0
  -43.9340   58.5848   66.5391 C   0  0  0  0  0  0  0  0  0  0  0  0
  -42.4624   58.2469   66.3704 C   0  0  0  0  0  0  0  0  0  0  0  0
  -41.8699   59.0443   65.2202 C   0  0  0  0  0  0  0  0  0  0  0  0
  -40.3562   59.0236   65.3338 C   0  0  0  0  0  0  0  0  0  0  0  0
  -39.7712   57.7135   64.8308 C   0  0  0  0  0  0  0  0  0  0  0  0
  -39.0905   57.9523   63.5060 C   0  0  0  0  0  0  0  0  0  0  0  0
  -38.0335   57.3519   63.2298 O   0  0  0  0  0  0  0  0  0  0  0  0
  -39.5637   58.7508   62.6697 O   0  0  0  0  0  0  0  0  0  0  0  0
  -40.3573   59.2116   62.8589 H   0  0  0  0  0  0  0  0  0  0  0  0
  -45.3550   58.0182   64.6252 C   0  0  0  0  0  0  0  0  0  0  0  0
  -46.1953   57.2817   65.6407 C   0  0  0  0  0  0  0  0  0  0  0  0
  -47.6326   57.5780   65.7491 C   0  0  0  0  0  0  0  0  0  0  0  0
  -48.1932   58.7611   65.0006 C   0  0  0  0  0  0  0  0  0  0  0  0
  -49.0660   58.3004   63.8383 C   0  0  0  0  0  0  0  0  0  0  0  0
  -50.5400   58.5643   64.1453 C   0  0  0  0  0  0  0  0  0  0  0  0
  -51.2797   59.1223   62.9304 C   0  0  0  0  0  0  0  0  0  0  0  0
  -50.6412   58.6680   61.6153 C   0  0  0  0  0  0  0  0  0  0  0  0
  -51.3248   57.4423   61.0150 C   0  0  0  0  0  0  0  0  0  0  0  0
  7  8  2  0  0  0
  7  6  1  0  0  0
  7  9  1  0  0  0
  6  5  1  0  0  0
  5  4  1  0  0  0
  4  3  1  0  0  0
  3  2  1  0  0  0
  2  1  1  0  0  0
  1 11  1  0  0  0
 11 12  1  0  0  0
 12 13  2  0  0  0
 13 14  1  0  0  0
 14 15  1  0  0  0
 15 16  1  0  0  0
 16 17  1  0  0  0
 17 18  1  0  0  0
 18 19  1  0  0  0
  9 10  1  0  0  0
M  END
> <minimizedAffinity>
-6.56964

> <CNNscore>
0.6630698442

> <CNNaffinity>
6.1472082138

> <CNN_VS>
4.0760283470

> <CNNaffinity_variance>
0.3183270991

$$$$
