


 19 18  0  0  0  0  0  0  0  0999 V2000
  -47.4795   59.3300   65.3671 C   0  0  0  0  0  0  0  0  0  0  0  0
  -46.2279   58.7230   64.7482 C   0  0  0  0  0  0  0  0  0  0  0  0
  -45.3954   57.9510   65.7577 C   0  0  0  0  0  0  0  0  0  0  0  0
  -43.9613   57.8278   65.2698 C   0  0  0  0  0  0  0  0  0  0  0  0
  -43.0209   58.1753   66.4097 C   0  0  0  0  0  0  0  0  0  0  0  0
  -41.8356   58.9986   65.9312 C   0  0  0  0  0  0  0  0  0  0  0  0
  -41.8146   60.3123   66.6724 C   0  0  0  0  0  0  0  0  0  0  0  0
  -41.0542   61.2272   66.3003 O   0  0  0  0  0  0  0  0  0  0  0  0
  -42.5469   60.5068   67.6658 O   0  0  0  0  0  0  0  0  0  0  0  0
  -43.1253   59.8312   67.9609 H   0  0  0  0  0  0  0  0  0  0  0  0
  -48.2358   60.0364   64.2514 C   0  0  0  0  0  0  0  0  0  0  0  0
  -49.7219   59.7835   64.3358 C   0  0  0  0  0  0  0  0  0  0  0  0
  -50.3558   58.8468   63.3945 C   0  0  0  0  0  0  0  0  0  0  0  0
  -49.5529   58.3273   62.2284 C   0  0  0  0  0  0  0  0  0  0  0  0
  -49.6833   59.2565   61.0265 C   0  0  0  0  0  0  0  0  0  0  0  0
  -49.3034   58.5189   59.7428 C   0  0  0  0  0  0  0  0  0  0  0  0
  -48.5425   57.2269   60.0367 C   0  0  0  0  0  0  0  0  0  0  0  0
  -47.5376   56.8925   58.9314 C   0  0  0  0  0  0  0  0  0  0  0  0
  -47.5608   57.8978   57.7830 C   0  0  0  0  0  0  0  0  0  0  0  0
  7  8  2  0  0  0
  7  6  1  0  0  0
  7  9  1  0  0  0
  6  5  1  0  0  0
  5  4  1  0  0  0
  4  3  1  0  0  0
  3  2  1  0  0  0
  2  1  1  0  0  0
  1 11  1  0  0  0
 11 12  1  0  0  0
 12 13  2  0  0  0
 13 14  1  0  0  0
 14 15  1  0  0  0
 15 16  1  0  0  0
 16 17  1  0  0  0
 17 18  1  0  0  0
 18 19  1  0  0  0
  9 10  1  0  0  0
M  END
> <minimizedAffinity>
-6.75227

> <CNNscore>
0.7827980518

> <CNNaffinity>
6.3638181686

> <CNN_VS>
4.9815845490

> <CNNaffinity_variance>
0.2957053781

$$$$



 19 18  0  0  0  0  0  0  0  0999 V2000
  -50.2625   59.0276   65.3296 C   0  0  0  0  0  0  0  0  0  0  0  0
  -49.0353   59.6067   66.0197 C   0  0  0  0  0  0  0  0  0  0  0  0
  -47.8500   59.7450   65.0795 C   0  0  0  0  0  0  0  0  0  0  0  0
  -47.2302   58.3830   64.8133 C   0  0  0  0  0  0  0  0  0  0  0  0
  -46.6644   57.8363   66.1116 C   0  0  0  0  0  0  0  0  0  0  0  0
  -45.2924   58.4160   66.4167 C   0  0  0  0  0  0  0  0  0  0  0  0
  -44.3168   57.9598   65.3605 C   0  0  0  0  0  0  0  0  0  0  0  0
  -43.7234   58.7983   64.6545 O   0  0  0  0  0  0  0  0  0  0  0  0
  -44.0895   56.7461   65.1703 O   0  0  0  0  0  0  0  0  0  0  0  0
  -44.5257   56.1005   65.6908 H   0  0  0  0  0  0  0  0  0  0  0  0
  -50.5043   59.8533   64.0744 C   0  0  0  0  0  0  0  0  0  0  0  0
  -51.4893   59.1842   63.1460 C   0  0  0  0  0  0  0  0  0  0  0  0
  -50.9959   58.3361   62.0494 C   0  0  0  0  0  0  0  0  0  0  0  0
  -49.5200   58.3275   61.7396 C   0  0  0  0  0  0  0  0  0  0  0  0
  -49.2495   58.9664   60.3818 C   0  0  0  0  0  0  0  0  0  0  0  0
  -49.1728   57.8926   59.2967 C   0  0  0  0  0  0  0  0  0  0  0  0
  -48.0167   56.9238   59.5403 C   0  0  0  0  0  0  0  0  0  0  0  0
  -47.1125   56.7941   58.3119 C   0  0  0  0  0  0  0  0  0  0  0  0
  -47.3575   57.8876   57.2755 C   0  0  0  0  0  0  0  0  0  0  0  0
  7  8  2  0  0  0
  7  6  1  0  0  0
  7  9  1  0  0  0
  6  5  1  0  0  0
  5  4  1  0  0  0
  4  3  1  0  0  0
  3  2  1  0  0  0
  2  1  1  0  0  0
  1 11  1  0  0  0
 11 12  1  0  0  0
 12 13  2  0  0  0
 13 14  1  0  0  0
 14 15  1  0  0  0
 15 16  1  0  0  0
 16 17  1  0  0  0
 17 18  1  0  0  0
 18 19  1  0  0  0
  9 10  1  0  0  0
M  END
> <minimizedAffinity>
-7.01025

> <CNNscore>
0.7204102278

> <CNNaffinity>
6.4836363792

> <CNN_VS>
4.6708779335

> <CNNaffinity_variance>
0.1352943480

$$$$



 19 18  0  0  0  0  0  0  0  0999 V2000
  -45.8878   58.6674   64.6940 C   0  0  0  0  0  0  0  0  0  0  0  0
  -45.6339   57.9425   66.0085 C   0  0  0  0  0  0  0  0  0  0  0  0
  -44.1799   58.0175   66.4428 C   0  0  0  0  0  0  0  0  0  0  0  0
  -43.3048   57.2270   65.4840 C   0  0  0  0  0  0  0  0  0  0  0  0
  -42.3014   58.1681   64.8422 C   0  0  0  0  0  0  0  0  0  0  0  0
  -41.2908   58.6883   65.8520 C   0  0  0  0  0  0  0  0  0  0  0  0
  -40.1438   59.3346   65.1157 C   0  0  0  0  0  0  0  0  0  0  0  0
  -39.0859   58.7023   64.9291 O   0  0  0  0  0  0  0  0  0  0  0  0
  -40.2274   60.5051   64.6868 O   0  0  0  0  0  0  0  0  0  0  0  0
  -41.0144   60.9967   64.8173 H   0  0  0  0  0  0  0  0  0  0  0  0
  -47.3894   58.8897   64.5857 C   0  0  0  0  0  0  0  0  0  0  0  0
  -47.9468   59.5551   65.8211 C   0  0  0  0  0  0  0  0  0  0  0  0
  -49.3703   59.3926   66.1564 C   0  0  0  0  0  0  0  0  0  0  0  0
  -50.2898   58.7505   65.1481 C   0  0  0  0  0  0  0  0  0  0  0  0
  -51.2078   59.7907   64.5155 C   0  0  0  0  0  0  0  0  0  0  0  0
  -51.3812   59.5072   63.0235 C   0  0  0  0  0  0  0  0  0  0  0  0
  -50.0642   59.6544   62.2629 C   0  0  0  0  0  0  0  0  0  0  0  0
  -49.9297   58.6138   61.1483 C   0  0  0  0  0  0  0  0  0  0  0  0
  -51.0571   57.5848   61.1567 C   0  0  0  0  0  0  0  0  0  0  0  0
  7  8  2  0  0  0
  7  6  1  0  0  0
  7  9  1  0  0  0
  6  5  1  0  0  0
  5  4  1  0  0  0
  4  3  1  0  0  0
  3  2  1  0  0  0
  2  1  1  0  0  0
  1 11  1  0  0  0
 11 12  1  0  0  0
 12 13  2  0  0  0
 13 14  1  0  0  0
 14 15  1  0  0  0
 15 16  1  0  0  0
 16 17  1  0  0  0
 17 18  1  0  0  0
 18 19  1  0  0  0
  9 10  1  0  0  0
M  END
> <minimizedAffinity>
-6.38357

> <CNNscore>
0.7030060291

> <CNNaffinity>
6.1980495453

> <CNN_VS>
4.3572664261

> <CNNaffinity_variance>
0.0960743651

$$$$



 19 18  0  0  0  0  0  0  0  0999 V2000
  -48.2231   59.3971   64.7090 C   0  0  0  0  0  0  0  0  0  0  0  0
  -47.1434   58.3461   64.9266 C   0  0  0  0  0  0  0  0  0  0  0  0
  -45.7678   58.9584   65.1290 C   0  0  0  0  0  0  0  0  0  0  0  0
  -44.7558   58.2881   64.2144 C   0  0  0  0  0  0  0  0  0  0  0  0
  -43.4053   58.9563   64.3992 C   0  0  0  0  0  0  0  0  0  0  0  0
  -42.7614   59.3038   63.0664 C   0  0  0  0  0  0  0  0  0  0  0  0
  -42.4653   60.7825   63.0309 C   0  0  0  0  0  0  0  0  0  0  0  0
  -41.7228   61.2916   63.8931 O   0  0  0  0  0  0  0  0  0  0  0  0
  -42.9560   61.5199   62.1498 O   0  0  0  0  0  0  0  0  0  0  0  0
  -43.5165   61.1559   61.4931 H   0  0  0  0  0  0  0  0  0  0  0  0
  -49.5656   58.7149   64.9286 C   0  0  0  0  0  0  0  0  0  0  0  0
  -50.7128   59.5693   64.4449 C   0  0  0  0  0  0  0  0  0  0  0  0
  -51.3401   59.2786   63.1459 C   0  0  0  0  0  0  0  0  0  0  0  0
  -50.6869   58.2771   62.2268 C   0  0  0  0  0  0  0  0  0  0  0  0
  -49.8569   58.9839   61.1607 C   0  0  0  0  0  0  0  0  0  0  0  0
  -49.9285   58.2184   59.8396 C   0  0  0  0  0  0  0  0  0  0  0  0
  -49.1979   56.8789   59.9216 C   0  0  0  0  0  0  0  0  0  0  0  0
  -47.7987   56.9535   59.3051 C   0  0  0  0  0  0  0  0  0  0  0  0
  -47.7401   57.8496   58.0708 C   0  0  0  0  0  0  0  0  0  0  0  0
  7  8  2  0  0  0
  7  6  1  0  0  0
  7  9  1  0  0  0
  6  5  1  0  0  0
  5  4  1  0  0  0
  4  3  1  0  0  0
  3  2  1  0  0  0
  2  1  1  0  0  0
  1 11  1  0  0  0
 11 12  1  0  0  0
 12 13  2  0  0  0
 13 14  1  0  0  0
 14 15  1  0  0  0
 15 16  1  0  0  0
 16 17  1  0  0  0
 17 18  1  0  0  0
 18 19  1  0  0  0
  9 10  1  0  0  0
M  END
> <minimizedAffinity>
-6.68111

> <CNNscore>
0.6916757822

> <CNNaffinity>
6.2819790840

> <CNN_VS>
4.3450927734

> <CNNaffinity_variance>
0.2099500895

$$$$



 19 18  0  0  0  0  0  0  0  0999 V2000
  -51.4766   59.3582   63.0992 C   0  0  0  0  0  0  0  0  0  0  0  0
  -50.4048   58.4404   62.5277 C   0  0  0  0  0  0  0  0  0  0  0  0
  -50.8340   57.7843   61.2264 C   0  0  0  0  0  0  0  0  0  0  0  0
  -49.6456   57.1072   60.5638 C   0  0  0  0  0  0  0  0  0  0  0  0
  -49.5236   57.6104   59.1367 C   0  0  0  0  0  0  0  0  0  0  0  0
  -48.0734   57.6789   58.6853 C   0  0  0  0  0  0  0  0  0  0  0  0
  -47.9032   56.8449   57.4399 C   0  0  0  0  0  0  0  0  0  0  0  0
  -47.8125   55.6047   57.5263 O   0  0  0  0  0  0  0  0  0  0  0  0
  -47.8456   57.3740   56.3096 O   0  0  0  0  0  0  0  0  0  0  0  0
  -47.9119   58.3047   56.2240 H   0  0  0  0  0  0  0  0  0  0  0  0
  -50.8367   60.1458   64.2332 C   0  0  0  0  0  0  0  0  0  0  0  0
  -49.4088   60.5213   63.9171 C   0  0  0  0  0  0  0  0  0  0  0  0
  -48.3330   60.1411   64.8464 C   0  0  0  0  0  0  0  0  0  0  0  0
  -48.6990   59.5799   66.1975 C   0  0  0  0  0  0  0  0  0  0  0  0
  -48.8896   58.0690   66.1209 C   0  0  0  0  0  0  0  0  0  0  0  0
  -47.5337   57.3666   66.0529 C   0  0  0  0  0  0  0  0  0  0  0  0
  -46.5573   57.9200   67.0898 C   0  0  0  0  0  0  0  0  0  0  0  0
  -45.1229   57.9630   66.5569 C   0  0  0  0  0  0  0  0  0  0  0  0
  -45.0454   58.3875   65.0927 C   0  0  0  0  0  0  0  0  0  0  0  0
  7  8  2  0  0  0
  7  6  1  0  0  0
  7  9  1  0  0  0
  6  5  1  0  0  0
  5  4  1  0  0  0
  4  3  1  0  0  0
  3  2  1  0  0  0
  2  1  1  0  0  0
  1 11  1  0  0  0
 11 12  1  0  0  0
 12 13  2  0  0  0
 13 14  1  0  0  0
 14 15  1  0  0  0
 15 16  1  0  0  0
 16 17  1  0  0  0
 17 18  1  0  0  0
 18 19  1  0  0  0
  9 10  1  0  0  0
M  END
> <minimizedAffinity>
-7.41815

> <CNNscore>
0.6718119383

> <CNNaffinity>
6.3530459404

> <CNN_VS>
4.2680521011

> <CNNaffinity_variance>
0.2357150614

$$$$



 19 18  0  0  0  0  0  0  0  0999 V2000
  -47.2508   57.1559   66.7108 C   0  0  0  0  0  0  0  0  0  0  0  0
  -46.2291   58.2828   66.6482 C   0  0  0  0  0  0  0  0  0  0  0  0
  -44.9598   57.8775   65.9182 C   0  0  0  0  0  0  0  0  0  0  0  0
  -44.9693   58.4315   64.5030 C   0  0  0  0  0  0  0  0  0  0  0  0
  -43.6653   58.0613   63.8196 C   0  0  0  0  0  0  0  0  0  0  0  0
  -42.7386   57.2960   64.7508 C   0  0  0  0  0  0  0  0  0  0  0  0
  -42.0775   56.1789   63.9823 C   0  0  0  0  0  0  0  0  0  0  0  0
  -41.7922   56.3325   62.7786 O   0  0  0  0  0  0  0  0  0  0  0  0
  -41.8096   55.0876   64.5285 O   0  0  0  0  0  0  0  0  0  0  0  0
  -42.0163   54.9529   65.4324 H   0  0  0  0  0  0  0  0  0  0  0  0
  -48.4801   57.6199   65.9431 C   0  0  0  0  0  0  0  0  0  0  0  0
  -48.6772   59.1129   66.0525 C   0  0  0  0  0  0  0  0  0  0  0  0
  -49.9070   59.7256   65.5258 C   0  0  0  0  0  0  0  0  0  0  0  0
  -50.8435   58.8857   64.6939 C   0  0  0  0  0  0  0  0  0  0  0  0
  -50.9988   59.4741   63.2959 C   0  0  0  0  0  0  0  0  0  0  0  0
  -50.8850   58.3730   62.2418 C   0  0  0  0  0  0  0  0  0  0  0  0
  -49.6203   58.5261   61.3981 C   0  0  0  0  0  0  0  0  0  0  0  0
  -49.8063   57.9679   59.9848 C   0  0  0  0  0  0  0  0  0  0  0  0
  -48.5112   57.9517   59.1771 C   0  0  0  0  0  0  0  0  0  0  0  0
  7  8  2  0  0  0
  7  6  1  0  0  0
  7  9  1  0  0  0
  6  5  1  0  0  0
  5  4  1  0  0  0
  4  3  1  0  0  0
  3  2  1  0  0  0
  2  1  1  0  0  0
  1 11  1  0  0  0
 11 12  1  0  0  0
 12 13  2  0  0  0
 13 14  1  0  0  0
 14 15  1  0  0  0
 15 16  1  0  0  0
 16 17  1  0  0  0
 17 18  1  0  0  0
 18 19  1  0  0  0
  9 10  1  0  0  0
M  END
> <minimizedAffinity>
-6.76810

> <CNNscore>
0.6684752703

> <CNNaffinity>
6.4976053238

> <CNN_VS>
4.3434886932

> <CNNaffinity_variance>
0.3556117415

$$$$



 19 18  0  0  0  0  0  0  0  0999 V2000
  -51.5306   59.5079   63.1089 C   0  0  0  0  0  0  0  0  0  0  0  0
  -50.4178   58.7838   62.3639 C   0  0  0  0  0  0  0  0  0  0  0  0
  -50.9445   57.6866   61.4545 C   0  0  0  0  0  0  0  0  0  0  0  0
  -50.3614   57.8374   60.0590 C   0  0  0  0  0  0  0  0  0  0  0  0
  -48.8488   57.7405   60.1432 C   0  0  0  0  0  0  0  0  0  0  0  0
  -48.1900   58.0332   58.8046 C   0  0  0  0  0  0  0  0  0  0  0  0
  -48.1315   56.7624   57.9940 C   0  0  0  0  0  0  0  0  0  0  0  0
  -47.8432   55.6824   58.5457 O   0  0  0  0  0  0  0  0  0  0  0  0
  -48.3633   56.7665   56.7663 O   0  0  0  0  0  0  0  0  0  0  0  0
  -48.5817   57.5683   56.3335 H   0  0  0  0  0  0  0  0  0  0  0  0
  -50.9512   59.9803   64.4344 C   0  0  0  0  0  0  0  0  0  0  0  0
  -50.6460   58.8235   65.3554 C   0  0  0  0  0  0  0  0  0  0  0  0
  -49.3459   58.7627   66.0420 C   0  0  0  0  0  0  0  0  0  0  0  0
  -48.2638   59.7354   65.6452 C   0  0  0  0  0  0  0  0  0  0  0  0
  -47.1669   59.0300   64.8553 C   0  0  0  0  0  0  0  0  0  0  0  0
  -46.5322   57.9254   65.7000 C   0  0  0  0  0  0  0  0  0  0  0  0
  -45.0178   57.8647   65.5064 C   0  0  0  0  0  0  0  0  0  0  0  0
  -44.5853   58.5062   64.1854 C   0  0  0  0  0  0  0  0  0  0  0  0
  -43.2790   57.9305   63.6449 C   0  0  0  0  0  0  0  0  0  0  0  0
  7  8  2  0  0  0
  7  6  1  0  0  0
  7  9  1  0  0  0
  6  5  1  0  0  0
  5  4  1  0  0  0
  4  3  1  0  0  0
  3  2  1  0  0  0
  2  1  1  0  0  0
  1 11  1  0  0  0
 11 12  1  0  0  0
 12 13  2  0  0  0
 13 14  1  0  0  0
 14 15  1  0  0  0
 15 16  1  0  0  0
 16 17  1  0  0  0
 17 18  1  0  0  0
 18 19  1  0  0  0
  9 10  1  0  0  0
M  END
> <minimizedAffinity>
-7.29529

> <CNNscore>
0.6431417465

> <CNNaffinity>
6.3242406845

> <CNN_VS>
4.0673832893

> <CNNaffinity_variance>
0.1478406340

$$$$



 19 18  0  0  0  0  0  0  0  0999 V2000
  -47.9583   59.2954   65.8742 C   0  0  0  0  0  0  0  0  0  0  0  0
  -47.8300   59.9745   64.5177 C   0  0  0  0  0  0  0  0  0  0  0  0
  -49.1519   60.5336   64.0196 C   0  0  0  0  0  0  0  0  0  0  0  0
  -50.2626   59.5171   64.2271 C   0  0  0  0  0  0  0  0  0  0  0  0
  -50.8991   59.2013   62.8856 C   0  0  0  0  0  0  0  0  0  0  0  0
  -49.8540   58.9094   61.8206 C   0  0  0  0  0  0  0  0  0  0  0  0
  -50.4693   58.0463   60.7473 C   0  0  0  0  0  0  0  0  0  0  0  0
  -51.3596   57.2246   61.0407 O   0  0  0  0  0  0  0  0  0  0  0  0
  -50.1006   58.1328   59.5567 O   0  0  0  0  0  0  0  0  0  0  0  0
  -49.4327   58.7444   59.3164 H   0  0  0  0  0  0  0  0  0  0  0  0
  -47.1498   58.0077   65.8109 C   0  0  0  0  0  0  0  0  0  0  0  0
  -45.9202   58.0758   66.6845 C   0  0  0  0  0  0  0  0  0  0  0  0
  -44.5885   58.1503   66.0628 C   0  0  0  0  0  0  0  0  0  0  0  0
  -44.4635   57.9363   64.5752 C   0  0  0  0  0  0  0  0  0  0  0  0
  -43.0078   58.0443   64.1347 C   0  0  0  0  0  0  0  0  0  0  0  0
  -42.0850   57.4685   65.2085 C   0  0  0  0  0  0  0  0  0  0  0  0
  -40.9467   58.4287   65.5504 C   0  0  0  0  0  0  0  0  0  0  0  0
  -39.7553   58.2613   64.6039 C   0  0  0  0  0  0  0  0  0  0  0  0
  -38.4383   58.0326   65.3409 C   0  0  0  0  0  0  0  0  0  0  0  0
  7  8  2  0  0  0
  7  6  1  0  0  0
  7  9  1  0  0  0
  6  5  1  0  0  0
  5  4  1  0  0  0
  4  3  1  0  0  0
  3  2  1  0  0  0
  2  1  1  0  0  0
  1 11  1  0  0  0
 11 12  1  0  0  0
 12 13  2  0  0  0
 13 14  1  0  0  0
 14 15  1  0  0  0
 15 16  1  0  0  0
 16 17  1  0  0  0
 17 18  1  0  0  0
 18 19  1  0  0  0
  9 10  1  0  0  0
M  END
> <minimizedAffinity>
-6.14361

> <CNNscore>
0.5781729221

> <CNNaffinity>
6.1761798859

> <CNN_VS>
3.5708999634

> <CNNaffinity_variance>
0.4100267291

$$$$



 19 18  0  0  0  0  0  0  0  0999 V2000
  -49.1794   59.3223   66.2336 C   0  0  0  0  0  0  0  0  0  0  0  0
  -49.8735   58.8757   64.9544 C   0  0  0  0  0  0  0  0  0  0  0  0
  -50.7850   59.9480   64.3821 C   0  0  0  0  0  0  0  0  0  0  0  0
  -51.5405   59.4068   63.1794 C   0  0  0  0  0  0  0  0  0  0  0  0
  -50.5449   59.0567   62.0882 C   0  0  0  0  0  0  0  0  0  0  0  0
  -50.9278   57.7745   61.3663 C   0  0  0  0  0  0  0  0  0  0  0  0
  -49.7316   57.2594   60.6052 C   0  0  0  0  0  0  0  0  0  0  0  0
  -48.9397   58.0599   60.0705 O   0  0  0  0  0  0  0  0  0  0  0  0
  -49.5148   56.0342   60.4922 O   0  0  0  0  0  0  0  0  0  0  0  0
  -50.0986   55.4168   60.8870 H   0  0  0  0  0  0  0  0  0  0  0  0
  -47.8796   58.5378   66.3376 C   0  0  0  0  0  0  0  0  0  0  0  0
  -46.9482   58.8439   65.1894 C   0  0  0  0  0  0  0  0  0  0  0  0
  -45.5442   58.4081   65.2544 C   0  0  0  0  0  0  0  0  0  0  0  0
  -45.0085   57.8607   66.5536 C   0  0  0  0  0  0  0  0  0  0  0  0
  -43.5351   57.4925   66.4177 C   0  0  0  0  0  0  0  0  0  0  0  0
  -42.7459   58.6685   65.8428 C   0  0  0  0  0  0  0  0  0  0  0  0
  -42.4450   59.7223   66.9075 C   0  0  0  0  0  0  0  0  0  0  0  0
  -41.4147   60.7454   66.4225 C   0  0  0  0  0  0  0  0  0  0  0  0
  -40.1059   60.1026   65.9710 C   0  0  0  0  0  0  0  0  0  0  0  0
  7  8  2  0  0  0
  7  6  1  0  0  0
  7  9  1  0  0  0
  6  5  1  0  0  0
  5  4  1  0  0  0
  4  3  1  0  0  0
  3  2  1  0  0  0
  2  1  1  0  0  0
  1 11  1  0  0  0
 11 12  1  0  0  0
 12 13  2  0  0  0
 13 14  1  0  0  0
 14 15  1  0  0  0
 15 16  1  0  0  0
 16 17  1  0  0  0
 17 18  1  0  0  0
 18 19  1  0  0  0
  9 10  1  0  0  0
M  END
> <minimizedAffinity>
-6.51707

> <CNNscore>
0.5680479407

> <CNNaffinity>
6.1721558571

> <CNN_VS>
3.5060803890

> <CNNaffinity_variance>
0.2678411603

$$$$
