


 37 36  0  0  0  0  0  0  0  0999 V2000
  -40.3782   60.1688   63.6617 O   0  0  0  0  0  0  0  0  0  0  0  0
  -40.7917   59.1772   63.1137 C   0  0  0  0  0  0  0  0  0  0  0  0
  -42.0067   58.4030   63.5240 C   0  0  0  0  0  0  0  0  0  0  0  0
  -41.7863   57.5599   64.7742 C   0  0  0  0  0  0  0  0  0  0  0  0
  -42.4949   58.0812   66.0126 C   0  0  0  0  0  0  0  0  0  0  0  0
  -43.7518   57.3039   66.3619 C   0  0  0  0  0  0  0  0  0  0  0  0
  -44.9787   57.7948   65.6128 C   0  0  0  0  0  0  0  0  0  0  0  0
  -46.0716   58.2615   66.5484 C   0  0  0  0  0  0  0  0  0  0  0  0
  -47.4621   58.2693   65.9466 C   0  0  0  0  0  0  0  0  0  0  0  0
  -47.4991   58.6577   64.5183 C   0  0  0  0  0  0  0  0  0  0  0  0
  -48.5819   58.8886   63.8050 C   0  0  0  0  0  0  0  0  0  0  0  0
  -49.9991   58.8525   64.2773 C   0  0  0  0  0  0  0  0  0  0  0  0
  -50.9504   58.7690   63.0824 C   0  0  0  0  0  0  0  0  0  0  0  0
  -50.2821   58.7728   61.7154 C   0  0  0  0  0  0  0  0  0  0  0  0
  -50.5871   57.5591   60.8458 C   0  0  0  0  0  0  0  0  0  0  0  0
  -49.6529   57.4172   59.6486 C   0  0  0  0  0  0  0  0  0  0  0  0
  -48.2980   58.0780   59.8474 C   0  0  0  0  0  0  0  0  0  0  0  0
  -47.1523   57.4663   59.0552 C   0  0  0  0  0  0  0  0  0  0  0  0
  -46.7422   58.3074   57.8857 C   0  0  0  0  0  0  0  0  0  0  0  0
  -40.2263   58.6224   62.0375 O   0  0  0  0  0  0  0  0  0  0  0  0
  -39.7688   59.5024   60.9872 C   0  0  0  0  0  0  0  0  0  0  0  0
  -38.7157   58.8417   60.1232 C   0  0  0  0  0  0  0  0  0  0  0  0
  -38.7005   59.4077   58.8057 O   0  0  0  0  0  0  0  0  0  0  0  0
  -38.4576   60.3453   58.8593 H   0  0  0  0  0  0  0  0  0  0  0  0
  -37.3326   58.9307   60.7244 C   0  0  0  0  0  0  0  0  0  0  0  0
  -37.2245   60.0255   61.6663 O   0  0  0  0  0  0  0  0  0  0  0  0
  -36.6358   60.1140   63.1568 P   0  0  0  0  0  0  0  0  0  0  0  0
  -36.6922   58.7185   63.7761 O   0  0  0  0  0  0  0  0  0  0  0  0
  -37.4954   61.0172   63.9528 O   0  0  0  0  0  0  0  0  0  0  0  0
  -38.4088   60.6914   63.9369 H   0  0  0  0  0  0  0  0  0  0  0  0
  -35.0746   60.6316   63.1575 O   0  0  0  0  0  0  0  0  0  0  0  0
  -33.9502   59.9491   63.7764 C   0  0  0  0  0  0  0  0  0  0  0  0
  -33.3587   58.9446   62.8187 C   0  0  0  0  0  0  0  0  0  0  0  0
  -31.9230   59.1829   62.3890 N   0  0  0  0  0  0  0  0  0  0  0  0
  -31.6123   60.6453   62.3882 C   0  0  0  0  0  0  0  0  0  0  0  0
  -31.7433   58.6477   61.0064 C   0  0  0  0  0  0  0  0  0  0  0  0
  -30.9721   58.4858   63.3199 C   0  0  0  0  0  0  0  0  0  0  0  0
 34 33  1  0  0  0
 34 35  1  0  0  0
 34 36  1  0  0  0
 34 37  1  0  0  0
 22 23  1  0  0  0
 22 25  1  0  0  0
 22 21  1  0  0  0
 27 26  1  0  0  0
 27 28  2  0  0  0
 27 31  1  0  0  0
 27 29  1  0  0  0
 25 26  1  0  0  0
 32 33  1  0  0  0
 32 31  1  0  0  0
 20 21  1  0  0  0
 20  2  1  0  0  0
  1  2  2  0  0  0
  2  3  1  0  0  0
  3  4  1  0  0  0
  4  5  1  0  0  0
  5  6  1  0  0  0
  6  7  1  0  0  0
  7  8  1  0  0  0
  8  9  1  0  0  0
  9 10  1  0  0  0
 10 11  2  0  0  0
 11 12  1  0  0  0
 12 13  1  0  0  0
 13 14  1  0  0  0
 14 15  1  0  0  0
 15 16  1  0  0  0
 16 17  1  0  0  0
 17 18  1  0  0  0
 18 19  1  0  0  0
 23 24  1  0  0  0
 29 30  1  0  0  0
M  CHG 1  28  -1
M  END
> <minimizedAffinity>
-7.71524

> <CNNscore>
0.8761540651

> <CNNaffinity>
6.8081374168

> <CNN_VS>
5.9649772644

> <CNNaffinity_variance>
0.4567207396

$$$$



 37 36  0  0  0  0  0  0  0  0999 V2000
  -42.2604   56.8285   64.2146 O   0  0  0  0  0  0  0  0  0  0  0  0
  -42.7320   57.6391   64.9731 C   0  0  0  0  0  0  0  0  0  0  0  0
  -43.8284   57.3696   65.9574 C   0  0  0  0  0  0  0  0  0  0  0  0
  -45.2169   57.3934   65.3296 C   0  0  0  0  0  0  0  0  0  0  0  0
  -46.1521   58.4346   65.9202 C   0  0  0  0  0  0  0  0  0  0  0  0
  -47.4482   58.5920   65.1446 C   0  0  0  0  0  0  0  0  0  0  0  0
  -48.5197   57.6054   65.5758 C   0  0  0  0  0  0  0  0  0  0  0  0
  -49.8285   58.2891   65.9031 C   0  0  0  0  0  0  0  0  0  0  0  0
  -49.8953   59.7519   65.5138 C   0  0  0  0  0  0  0  0  0  0  0  0
  -51.1682   60.1470   64.8689 C   0  0  0  0  0  0  0  0  0  0  0  0
  -51.4510   60.0493   63.5863 C   0  0  0  0  0  0  0  0  0  0  0  0
  -50.5803   59.4873   62.5099 C   0  0  0  0  0  0  0  0  0  0  0  0
  -51.0809   58.1022   62.0971 C   0  0  0  0  0  0  0  0  0  0  0  0
  -50.1807   57.3444   61.1323 C   0  0  0  0  0  0  0  0  0  0  0  0
  -49.8379   58.0916   59.8491 C   0  0  0  0  0  0  0  0  0  0  0  0
  -48.8404   57.3536   58.9623 C   0  0  0  0  0  0  0  0  0  0  0  0
  -47.4409   57.9473   58.9893 C   0  0  0  0  0  0  0  0  0  0  0  0
  -46.7179   57.9722   57.6510 C   0  0  0  0  0  0  0  0  0  0  0  0
  -47.5008   57.3138   56.5569 C   0  0  0  0  0  0  0  0  0  0  0  0
  -42.3320   58.9114   65.0568 O   0  0  0  0  0  0  0  0  0  0  0  0
  -41.3659   59.2486   66.0765 C   0  0  0  0  0  0  0  0  0  0  0  0
  -40.4844   60.4038   65.6515 C   0  0  0  0  0  0  0  0  0  0  0  0
  -40.9794   61.6469   66.1675 O   0  0  0  0  0  0  0  0  0  0  0  0
  -40.9525   61.6281   67.1369 H   0  0  0  0  0  0  0  0  0  0  0  0
  -39.0454   60.2216   66.0740 C   0  0  0  0  0  0  0  0  0  0  0  0
  -38.1235   60.7104   65.0697 O   0  0  0  0  0  0  0  0  0  0  0  0
  -37.0231   59.9733   64.1632 P   0  0  0  0  0  0  0  0  0  0  0  0
  -35.6614   60.1399   64.8355 O   0  0  0  0  0  0  0  0  0  0  0  0
  -36.9789   60.6342   62.8405 O   0  0  0  0  0  0  0  0  0  0  0  0
  -36.7874   61.5780   62.9569 H   0  0  0  0  0  0  0  0  0  0  0  0
  -37.3461   58.3678   64.0109 O   0  0  0  0  0  0  0  0  0  0  0  0
  -37.7495   57.6912   62.7892 C   0  0  0  0  0  0  0  0  0  0  0  0
  -39.2542   57.6280   62.7006 C   0  0  0  0  0  0  0  0  0  0  0  0
  -39.8972   58.3841   61.5527 N   0  0  0  0  0  0  0  0  0  0  0  0
  -38.8864   58.6871   60.4937 C   0  0  0  0  0  0  0  0  0  0  0  0
  -40.4506   59.6682   62.0774 C   0  0  0  0  0  0  0  0  0  0  0  0
  -41.0077   57.5748   60.9457 C   0  0  0  0  0  0  0  0  0  0  0  0
 34 33  1  0  0  0
 34 35  1  0  0  0
 34 36  1  0  0  0
 34 37  1  0  0  0
 22 23  1  0  0  0
 22 25  1  0  0  0
 22 21  1  0  0  0
 27 26  1  0  0  0
 27 28  2  0  0  0
 27 31  1  0  0  0
 27 29  1  0  0  0
 25 26  1  0  0  0
 32 33  1  0  0  0
 32 31  1  0  0  0
 20 21  1  0  0  0
 20  2  1  0  0  0
  1  2  2  0  0  0
  2  3  1  0  0  0
  3  4  1  0  0  0
  4  5  1  0  0  0
  5  6  1  0  0  0
  6  7  1  0  0  0
  7  8  1  0  0  0
  8  9  1  0  0  0
  9 10  1  0  0  0
 10 11  2  0  0  0
 11 12  1  0  0  0
 12 13  1  0  0  0
 13 14  1  0  0  0
 14 15  1  0  0  0
 15 16  1  0  0  0
 16 17  1  0  0  0
 17 18  1  0  0  0
 18 19  1  0  0  0
 23 24  1  0  0  0
 29 30  1  0  0  0
M  CHG 1  28  -1
M  END
> <minimizedAffinity>
-8.31693

> <CNNscore>
0.8042640686

> <CNNaffinity>
7.1462059021

> <CNN_VS>
5.7474365234

> <CNNaffinity_variance>
0.4166209102

$$$$



 37 36  0  0  0  0  0  0  0  0999 V2000
  -45.5966   58.4288   64.3541 O   0  0  0  0  0  0  0  0  0  0  0  0
  -45.2530   57.8643   65.3631 C   0  0  0  0  0  0  0  0  0  0  0  0
  -46.1668   57.4329   66.4688 C   0  0  0  0  0  0  0  0  0  0  0  0
  -46.7100   58.5985   67.2867 C   0  0  0  0  0  0  0  0  0  0  0  0
  -48.0591   59.1159   66.8179 C   0  0  0  0  0  0  0  0  0  0  0  0
  -48.8794   58.0771   66.0736 C   0  0  0  0  0  0  0  0  0  0  0  0
  -50.3356   58.4780   65.9110 C   0  0  0  0  0  0  0  0  0  0  0  0
  -50.5015   59.9709   65.7339 C   0  0  0  0  0  0  0  0  0  0  0  0
  -50.4555   60.4487   64.2967 C   0  0  0  0  0  0  0  0  0  0  0  0
  -51.5611   59.9371   63.4552 C   0  0  0  0  0  0  0  0  0  0  0  0
  -51.4774   58.9629   62.5728 C   0  0  0  0  0  0  0  0  0  0  0  0
  -50.2754   58.1350   62.2529 C   0  0  0  0  0  0  0  0  0  0  0  0
  -49.4956   58.7635   61.0969 C   0  0  0  0  0  0  0  0  0  0  0  0
  -49.0073   57.7899   60.0342 C   0  0  0  0  0  0  0  0  0  0  0  0
  -47.5251   57.4439   60.1098 C   0  0  0  0  0  0  0  0  0  0  0  0
  -46.8124   57.5199   58.7636 C   0  0  0  0  0  0  0  0  0  0  0  0
  -47.7281   57.8834   57.6056 C   0  0  0  0  0  0  0  0  0  0  0  0
  -48.0247   56.7540   56.6303 C   0  0  0  0  0  0  0  0  0  0  0  0
  -47.0635   55.6122   56.7561 C   0  0  0  0  0  0  0  0  0  0  0  0
  -43.9909   57.5248   65.6414 O   0  0  0  0  0  0  0  0  0  0  0  0
  -43.0012   57.7003   64.6039 C   0  0  0  0  0  0  0  0  0  0  0  0
  -41.8248   56.7654   64.7894 C   0  0  0  0  0  0  0  0  0  0  0  0
  -41.8804   55.6760   63.8585 O   0  0  0  0  0  0  0  0  0  0  0  0
  -41.8130   56.0199   62.9540 H   0  0  0  0  0  0  0  0  0  0  0  0
  -40.4959   57.4719   64.6576 C   0  0  0  0  0  0  0  0  0  0  0  0
  -40.4708   58.7143   65.4012 O   0  0  0  0  0  0  0  0  0  0  0  0
  -39.4725   59.9707   65.3721 P   0  0  0  0  0  0  0  0  0  0  0  0
  -40.0346   61.0487   66.2973 O   0  0  0  0  0  0  0  0  0  0  0  0
  -39.4282   60.5089   63.9949 O   0  0  0  0  0  0  0  0  0  0  0  0
  -40.3252   60.7452   63.7111 H   0  0  0  0  0  0  0  0  0  0  0  0
  -37.9684   59.5566   65.8932 O   0  0  0  0  0  0  0  0  0  0  0  0
  -36.8681   59.1106   65.0546 C   0  0  0  0  0  0  0  0  0  0  0  0
  -35.6470   59.9618   65.3001 C   0  0  0  0  0  0  0  0  0  0  0  0
  -35.5428   61.2443   64.4956 N   0  0  0  0  0  0  0  0  0  0  0  0
  -34.1123   61.5617   64.1989 C   0  0  0  0  0  0  0  0  0  0  0  0
  -36.1315   62.3591   65.2962 C   0  0  0  0  0  0  0  0  0  0  0  0
  -36.2898   61.1146   63.1988 C   0  0  0  0  0  0  0  0  0  0  0  0
 34 33  1  0  0  0
 34 35  1  0  0  0
 34 36  1  0  0  0
 34 37  1  0  0  0
 22 23  1  0  0  0
 22 25  1  0  0  0
 22 21  1  0  0  0
 27 26  1  0  0  0
 27 28  2  0  0  0
 27 31  1  0  0  0
 27 29  1  0  0  0
 25 26  1  0  0  0
 32 33  1  0  0  0
 32 31  1  0  0  0
 20 21  1  0  0  0
 20  2  1  0  0  0
  1  2  2  0  0  0
  2  3  1  0  0  0
  3  4  1  0  0  0
  4  5  1  0  0  0
  5  6  1  0  0  0
  6  7  1  0  0  0
  7  8  1  0  0  0
  8  9  1  0  0  0
  9 10  1  0  0  0
 10 11  2  0  0  0
 11 12  1  0  0  0
 12 13  1  0  0  0
 13 14  1  0  0  0
 14 15  1  0  0  0
 15 16  1  0  0  0
 16 17  1  0  0  0
 17 18  1  0  0  0
 18 19  1  0  0  0
 23 24  1  0  0  0
 29 30  1  0  0  0
M  CHG 1  28  -1
M  END
> <minimizedAffinity>
-8.01790

> <CNNscore>
0.7668320537

> <CNNaffinity>
6.7021269798

> <CNN_VS>
5.1394057274

> <CNNaffinity_variance>
0.1973621994

$$$$



 37 36  0  0  0  0  0  0  0  0999 V2000
  -41.6642   58.3468   66.1374 O   0  0  0  0  0  0  0  0  0  0  0  0
  -42.4413   58.3877   65.2160 C   0  0  0  0  0  0  0  0  0  0  0  0
  -43.4972   57.3653   64.9268 C   0  0  0  0  0  0  0  0  0  0  0  0
  -44.9133   57.9163   65.0439 C   0  0  0  0  0  0  0  0  0  0  0  0
  -45.4684   57.9181   66.4578 C   0  0  0  0  0  0  0  0  0  0  0  0
  -46.8745   57.3529   66.5558 C   0  0  0  0  0  0  0  0  0  0  0  0
  -47.9491   58.4246   66.4924 C   0  0  0  0  0  0  0  0  0  0  0  0
  -49.1125   58.0171   65.6160 C   0  0  0  0  0  0  0  0  0  0  0  0
  -50.4353   58.6623   65.9763 C   0  0  0  0  0  0  0  0  0  0  0  0
  -50.5682   60.0633   65.5160 C   0  0  0  0  0  0  0  0  0  0  0  0
  -51.0873   60.4579   64.3716 C   0  0  0  0  0  0  0  0  0  0  0  0
  -51.6898   59.5975   63.3089 C   0  0  0  0  0  0  0  0  0  0  0  0
  -50.6036   59.1058   62.3508 C   0  0  0  0  0  0  0  0  0  0  0  0
  -50.9285   57.8228   61.6000 C   0  0  0  0  0  0  0  0  0  0  0  0
  -50.0853   57.5736   60.3553 C   0  0  0  0  0  0  0  0  0  0  0  0
  -48.6264   57.9886   60.5147 C   0  0  0  0  0  0  0  0  0  0  0  0
  -47.6885   57.3242   59.5194 C   0  0  0  0  0  0  0  0  0  0  0  0
  -47.1577   58.2308   58.4191 C   0  0  0  0  0  0  0  0  0  0  0  0
  -47.0733   57.5427   57.0914 C   0  0  0  0  0  0  0  0  0  0  0  0
  -42.4837   59.3709   64.3120 O   0  0  0  0  0  0  0  0  0  0  0  0
  -41.6272   59.2594   63.1541 C   0  0  0  0  0  0  0  0  0  0  0  0
  -41.0273   60.5958   62.7715 C   0  0  0  0  0  0  0  0  0  0  0  0
  -41.2371   61.5693   63.8033 O   0  0  0  0  0  0  0  0  0  0  0  0
  -40.7792   61.2883   64.6109 H   0  0  0  0  0  0  0  0  0  0  0  0
  -39.5517   60.5020   62.4614 C   0  0  0  0  0  0  0  0  0  0  0  0
  -38.8289   59.7895   63.4945 O   0  0  0  0  0  0  0  0  0  0  0  0
  -38.0389   60.2876   64.7997 P   0  0  0  0  0  0  0  0  0  0  0  0
  -39.0573   60.8577   65.7856 O   0  0  0  0  0  0  0  0  0  0  0  0
  -37.1084   61.3684   64.4067 O   0  0  0  0  0  0  0  0  0  0  0  0
  -37.6058   62.0847   63.9821 H   0  0  0  0  0  0  0  0  0  0  0  0
  -37.2343   59.0501   65.5252 O   0  0  0  0  0  0  0  0  0  0  0  0
  -35.9803   58.4685   65.0756 C   0  0  0  0  0  0  0  0  0  0  0  0
  -36.1885   57.7128   63.7865 C   0  0  0  0  0  0  0  0  0  0  0  0
  -35.3406   58.1442   62.6043 N   0  0  0  0  0  0  0  0  0  0  0  0
  -34.6319   59.4251   62.9077 C   0  0  0  0  0  0  0  0  0  0  0  0
  -36.2346   58.3512   61.4260 C   0  0  0  0  0  0  0  0  0  0  0  0
  -34.3205   57.0916   62.2760 C   0  0  0  0  0  0  0  0  0  0  0  0
 34 33  1  0  0  0
 34 35  1  0  0  0
 34 36  1  0  0  0
 34 37  1  0  0  0
 22 23  1  0  0  0
 22 25  1  0  0  0
 22 21  1  0  0  0
 27 26  1  0  0  0
 27 28  2  0  0  0
 27 31  1  0  0  0
 27 29  1  0  0  0
 25 26  1  0  0  0
 32 33  1  0  0  0
 32 31  1  0  0  0
 20 21  1  0  0  0
 20  2  1  0  0  0
  1  2  2  0  0  0
  2  3  1  0  0  0
  3  4  1  0  0  0
  4  5  1  0  0  0
  5  6  1  0  0  0
  6  7  1  0  0  0
  7  8  1  0  0  0
  8  9  1  0  0  0
  9 10  1  0  0  0
 10 11  2  0  0  0
 11 12  1  0  0  0
 12 13  1  0  0  0
 13 14  1  0  0  0
 14 15  1  0  0  0
 15 16  1  0  0  0
 16 17  1  0  0  0
 17 18  1  0  0  0
 18 19  1  0  0  0
 23 24  1  0  0  0
 29 30  1  0  0  0
M  CHG 1  28  -1
M  END
> <minimizedAffinity>
-8.17869

> <CNNscore>
0.7636850476

> <CNNaffinity>
6.7721953392

> <CNN_VS>
5.1718244553

> <CNNaffinity_variance>
0.2580765486

$$$$



 37 36  0  0  0  0  0  0  0  0999 V2000
  -41.3223   56.6917   64.4019 O   0  0  0  0  0  0  0  0  0  0  0  0
  -41.2934   57.7755   64.9303 C   0  0  0  0  0  0  0  0  0  0  0  0
  -42.0618   58.1626   66.1564 C   0  0  0  0  0  0  0  0  0  0  0  0
  -43.5136   57.7000   66.1249 C   0  0  0  0  0  0  0  0  0  0  0  0
  -44.2832   58.1402   64.8915 C   0  0  0  0  0  0  0  0  0  0  0  0
  -45.7901   58.1133   65.0778 C   0  0  0  0  0  0  0  0  0  0  0  0
  -46.2061   58.1133   66.5388 C   0  0  0  0  0  0  0  0  0  0  0  0
  -47.4103   58.9930   66.7907 C   0  0  0  0  0  0  0  0  0  0  0  0
  -48.2857   59.2336   65.5776 C   0  0  0  0  0  0  0  0  0  0  0  0
  -49.4983   58.3852   65.5309 C   0  0  0  0  0  0  0  0  0  0  0  0
  -50.6261   58.6772   64.9165 C   0  0  0  0  0  0  0  0  0  0  0  0
  -50.9223   59.8952   64.1032 C   0  0  0  0  0  0  0  0  0  0  0  0
  -50.6331   59.6249   62.6258 C   0  0  0  0  0  0  0  0  0  0  0  0
  -50.8152   58.1817   62.1791 C   0  0  0  0  0  0  0  0  0  0  0  0
  -49.7526   57.6666   61.2158 C   0  0  0  0  0  0  0  0  0  0  0  0
  -49.9936   58.0770   59.7668 C   0  0  0  0  0  0  0  0  0  0  0  0
  -49.0328   57.4329   58.7800 C   0  0  0  0  0  0  0  0  0  0  0  0
  -47.5566   57.5814   59.1166 C   0  0  0  0  0  0  0  0  0  0  0  0
  -46.7980   58.3430   58.0736 C   0  0  0  0  0  0  0  0  0  0  0  0
  -40.5520   58.8010   64.5011 O   0  0  0  0  0  0  0  0  0  0  0  0
  -39.2140   58.9332   65.0294 C   0  0  0  0  0  0  0  0  0  0  0  0
  -38.7851   60.3830   65.1094 C   0  0  0  0  0  0  0  0  0  0  0  0
  -39.7953   61.1857   65.7351 O   0  0  0  0  0  0  0  0  0  0  0  0
  -39.9223   60.8900   66.6502 H   0  0  0  0  0  0  0  0  0  0  0  0
  -37.4760   60.5612   65.8422 C   0  0  0  0  0  0  0  0  0  0  0  0
  -37.3017   61.9206   66.3100 O   0  0  0  0  0  0  0  0  0  0  0  0
  -35.9944   62.8156   66.5664 P   0  0  0  0  0  0  0  0  0  0  0  0
  -34.7890   61.8822   66.6666 O   0  0  0  0  0  0  0  0  0  0  0  0
  -36.1501   63.5234   67.8560 O   0  0  0  0  0  0  0  0  0  0  0  0
  -36.2978   62.8768   68.5639 H   0  0  0  0  0  0  0  0  0  0  0  0
  -35.7414   63.8777   65.3363 O   0  0  0  0  0  0  0  0  0  0  0  0
  -34.4771   64.1121   64.6584 C   0  0  0  0  0  0  0  0  0  0  0  0
  -33.3853   64.3727   65.6666 C   0  0  0  0  0  0  0  0  0  0  0  0
  -32.1031   64.9842   65.1331 N   0  0  0  0  0  0  0  0  0  0  0  0
  -32.4075   66.1485   64.2460 C   0  0  0  0  0  0  0  0  0  0  0  0
  -31.3736   63.9487   64.3419 C   0  0  0  0  0  0  0  0  0  0  0  0
  -31.2320   65.4511   66.2643 C   0  0  0  0  0  0  0  0  0  0  0  0
 34 33  1  0  0  0
 34 35  1  0  0  0
 34 36  1  0  0  0
 34 37  1  0  0  0
 22 23  1  0  0  0
 22 25  1  0  0  0
 22 21  1  0  0  0
 27 26  1  0  0  0
 27 28  2  0  0  0
 27 31  1  0  0  0
 27 29  1  0  0  0
 25 26  1  0  0  0
 32 33  1  0  0  0
 32 31  1  0  0  0
 20 21  1  0  0  0
 20  2  1  0  0  0
  1  2  2  0  0  0
  2  3  1  0  0  0
  3  4  1  0  0  0
  4  5  1  0  0  0
  5  6  1  0  0  0
  6  7  1  0  0  0
  7  8  1  0  0  0
  8  9  1  0  0  0
  9 10  1  0  0  0
 10 11  2  0  0  0
 11 12  1  0  0  0
 12 13  1  0  0  0
 13 14  1  0  0  0
 14 15  1  0  0  0
 15 16  1  0  0  0
 16 17  1  0  0  0
 17 18  1  0  0  0
 18 19  1  0  0  0
 23 24  1  0  0  0
 29 30  1  0  0  0
M  CHG 1  28  -1
M  END
> <minimizedAffinity>
-8.37017

> <CNNscore>
0.7515364289

> <CNNaffinity>
6.2620749474

> <CNN_VS>
4.7061772346

> <CNNaffinity_variance>
0.3269719481

$$$$



 37 36  0  0  0  0  0  0  0  0999 V2000
  -42.6691   57.2474   63.2600 O   0  0  0  0  0  0  0  0  0  0  0  0
  -42.9328   57.8202   64.2881 C   0  0  0  0  0  0  0  0  0  0  0  0
  -43.4561   57.1708   65.5323 C   0  0  0  0  0  0  0  0  0  0  0  0
  -44.6521   57.9006   66.1319 C   0  0  0  0  0  0  0  0  0  0  0  0
  -45.9931   57.4846   65.5522 C   0  0  0  0  0  0  0  0  0  0  0  0
  -46.8043   58.6481   65.0098 C   0  0  0  0  0  0  0  0  0  0  0  0
  -47.9467   59.0515   65.9262 C   0  0  0  0  0  0  0  0  0  0  0  0
  -49.0476   58.0148   65.9582 C   0  0  0  0  0  0  0  0  0  0  0  0
  -50.4526   58.5815   65.9856 C   0  0  0  0  0  0  0  0  0  0  0  0
  -50.5323   60.0145   65.6219 C   0  0  0  0  0  0  0  0  0  0  0  0
  -50.9759   60.5019   64.4816 C   0  0  0  0  0  0  0  0  0  0  0  0
  -51.5307   59.7339   63.3262 C   0  0  0  0  0  0  0  0  0  0  0  0
  -50.4288   59.4514   62.3037 C   0  0  0  0  0  0  0  0  0  0  0  0
  -49.8937   58.0269   62.2986 C   0  0  0  0  0  0  0  0  0  0  0  0
  -50.0651   57.2791   60.9819 C   0  0  0  0  0  0  0  0  0  0  0  0
  -49.8638   58.1577   59.7516 C   0  0  0  0  0  0  0  0  0  0  0  0
  -48.8986   57.5728   58.7328 C   0  0  0  0  0  0  0  0  0  0  0  0
  -47.4653   58.0733   58.8310 C   0  0  0  0  0  0  0  0  0  0  0  0
  -46.6541   57.7512   57.6137 C   0  0  0  0  0  0  0  0  0  0  0  0
  -42.7832   59.1348   64.4753 O   0  0  0  0  0  0  0  0  0  0  0  0
  -42.1012   59.8887   63.4490 C   0  0  0  0  0  0  0  0  0  0  0  0
  -41.0609   60.8188   64.0364 C   0  0  0  0  0  0  0  0  0  0  0  0
  -41.5514   62.1647   64.1023 O   0  0  0  0  0  0  0  0  0  0  0  0
  -42.3154   62.2016   64.6989 H   0  0  0  0  0  0  0  0  0  0  0  0
  -40.6018   60.3834   65.4082 C   0  0  0  0  0  0  0  0  0  0  0  0
  -39.3853   61.0596   65.8085 O   0  0  0  0  0  0  0  0  0  0  0  0
  -37.8414   60.6233   65.7623 P   0  0  0  0  0  0  0  0  0  0  0  0
  -37.7609   59.1229   66.0388 O   0  0  0  0  0  0  0  0  0  0  0  0
  -37.1146   61.3390   66.8336 O   0  0  0  0  0  0  0  0  0  0  0  0
  -37.5264   61.1438   67.6899 H   0  0  0  0  0  0  0  0  0  0  0  0
  -37.1738   60.9276   64.2903 O   0  0  0  0  0  0  0  0  0  0  0  0
  -36.8964   59.9411   63.2593 C   0  0  0  0  0  0  0  0  0  0  0  0
  -37.8789   60.0835   62.1234 C   0  0  0  0  0  0  0  0  0  0  0  0
  -37.9127   58.9531   61.1117 N   0  0  0  0  0  0  0  0  0  0  0  0
  -36.6793   58.1153   61.2209 C   0  0  0  0  0  0  0  0  0  0  0  0
  -37.9803   59.5413   59.7406 C   0  0  0  0  0  0  0  0  0  0  0  0
  -39.1137   58.0796   61.3381 C   0  0  0  0  0  0  0  0  0  0  0  0
 34 33  1  0  0  0
 34 35  1  0  0  0
 34 36  1  0  0  0
 34 37  1  0  0  0
 22 23  1  0  0  0
 22 25  1  0  0  0
 22 21  1  0  0  0
 27 26  1  0  0  0
 27 28  2  0  0  0
 27 31  1  0  0  0
 27 29  1  0  0  0
 25 26  1  0  0  0
 32 33  1  0  0  0
 32 31  1  0  0  0
 20 21  1  0  0  0
 20  2  1  0  0  0
  1  2  2  0  0  0
  2  3  1  0  0  0
  3  4  1  0  0  0
  4  5  1  0  0  0
  5  6  1  0  0  0
  6  7  1  0  0  0
  7  8  1  0  0  0
  8  9  1  0  0  0
  9 10  1  0  0  0
 10 11  2  0  0  0
 11 12  1  0  0  0
 12 13  1  0  0  0
 13 14  1  0  0  0
 14 15  1  0  0  0
 15 16  1  0  0  0
 16 17  1  0  0  0
 17 18  1  0  0  0
 18 19  1  0  0  0
 23 24  1  0  0  0
 29 30  1  0  0  0
M  CHG 1  28  -1
M  END
> <minimizedAffinity>
-8.50027

> <CNNscore>
0.7389060259

> <CNNaffinity>
6.8566007614

> <CNN_VS>
5.0663838387

> <CNNaffinity_variance>
0.4498390555

$$$$



 37 36  0  0  0  0  0  0  0  0999 V2000
  -42.8977   57.9396   63.9520 O   0  0  0  0  0  0  0  0  0  0  0  0
  -42.4378   58.3601   64.9846 C   0  0  0  0  0  0  0  0  0  0  0  0
  -43.1210   58.3207   66.3171 C   0  0  0  0  0  0  0  0  0  0  0  0
  -44.3554   57.4270   66.3316 C   0  0  0  0  0  0  0  0  0  0  0  0
  -45.6473   58.1397   65.9703 C   0  0  0  0  0  0  0  0  0  0  0  0
  -46.6321   58.2272   67.1229 C   0  0  0  0  0  0  0  0  0  0  0  0
  -47.8507   59.0738   66.7975 C   0  0  0  0  0  0  0  0  0  0  0  0
  -48.5599   58.5994   65.5487 C   0  0  0  0  0  0  0  0  0  0  0  0
  -50.0649   58.4817   65.6792 C   0  0  0  0  0  0  0  0  0  0  0  0
  -50.8116   59.6207   65.0984 C   0  0  0  0  0  0  0  0  0  0  0  0
  -51.1781   59.7468   63.8396 C   0  0  0  0  0  0  0  0  0  0  0  0
  -50.9635   58.7650   62.7339 C   0  0  0  0  0  0  0  0  0  0  0  0
  -49.5730   58.9530   62.1252 C   0  0  0  0  0  0  0  0  0  0  0  0
  -49.5467   59.2059   60.6249 C   0  0  0  0  0  0  0  0  0  0  0  0
  -50.0193   58.0388   59.7665 C   0  0  0  0  0  0  0  0  0  0  0  0
  -49.1796   56.7772   59.9380 C   0  0  0  0  0  0  0  0  0  0  0  0
  -48.1318   56.5868   58.8529 C   0  0  0  0  0  0  0  0  0  0  0  0
  -46.8809   57.4404   58.9983 C   0  0  0  0  0  0  0  0  0  0  0  0
  -46.5506   58.2018   57.7514 C   0  0  0  0  0  0  0  0  0  0  0  0
  -41.2295   58.9197   65.0961 O   0  0  0  0  0  0  0  0  0  0  0  0
  -40.0744   58.0680   64.9307 C   0  0  0  0  0  0  0  0  0  0  0  0
  -38.8074   58.7452   65.4086 C   0  0  0  0  0  0  0  0  0  0  0  0
  -37.6565   57.9323   65.1420 O   0  0  0  0  0  0  0  0  0  0  0  0
  -37.5570   57.8168   64.1841 H   0  0  0  0  0  0  0  0  0  0  0  0
  -38.6117   60.1108   64.7928 C   0  0  0  0  0  0  0  0  0  0  0  0
  -37.2201   60.3684   64.4857 O   0  0  0  0  0  0  0  0  0  0  0  0
  -36.4653   60.7319   63.1166 P   0  0  0  0  0  0  0  0  0  0  0  0
  -35.4578   59.6229   62.8179 O   0  0  0  0  0  0  0  0  0  0  0  0
  -35.7272   62.0000   63.3048 O   0  0  0  0  0  0  0  0  0  0  0  0
  -35.1134   61.9092   64.0503 H   0  0  0  0  0  0  0  0  0  0  0  0
  -37.5197   60.8429   61.8592 O   0  0  0  0  0  0  0  0  0  0  0  0
  -37.7575   59.8213   60.8529 C   0  0  0  0  0  0  0  0  0  0  0  0
  -38.6668   58.7500   61.4022 C   0  0  0  0  0  0  0  0  0  0  0  0
  -40.1288   58.8338   61.0047 N   0  0  0  0  0  0  0  0  0  0  0  0
  -40.8171   59.9212   61.7656 C   0  0  0  0  0  0  0  0  0  0  0  0
  -40.7849   57.5299   61.3207 C   0  0  0  0  0  0  0  0  0  0  0  0
  -40.2596   59.1131   59.5345 C   0  0  0  0  0  0  0  0  0  0  0  0
 34 33  1  0  0  0
 34 35  1  0  0  0
 34 36  1  0  0  0
 34 37  1  0  0  0
 22 23  1  0  0  0
 22 25  1  0  0  0
 22 21  1  0  0  0
 27 26  1  0  0  0
 27 28  2  0  0  0
 27 31  1  0  0  0
 27 29  1  0  0  0
 25 26  1  0  0  0
 32 33  1  0  0  0
 32 31  1  0  0  0
 20 21  1  0  0  0
 20  2  1  0  0  0
  1  2  2  0  0  0
  2  3  1  0  0  0
  3  4  1  0  0  0
  4  5  1  0  0  0
  5  6  1  0  0  0
  6  7  1  0  0  0
  7  8  1  0  0  0
  8  9  1  0  0  0
  9 10  1  0  0  0
 10 11  2  0  0  0
 11 12  1  0  0  0
 12 13  1  0  0  0
 13 14  1  0  0  0
 14 15  1  0  0  0
 15 16  1  0  0  0
 16 17  1  0  0  0
 17 18  1  0  0  0
 18 19  1  0  0  0
 23 24  1  0  0  0
 29 30  1  0  0  0
M  CHG 1  28  -1
M  END
> <minimizedAffinity>
-7.95758

> <CNNscore>
0.7380933762

> <CNNaffinity>
7.0169019699

> <CNN_VS>
5.1791286469

> <CNNaffinity_variance>
0.2387638092

$$$$



 37 36  0  0  0  0  0  0  0  0999 V2000
  -44.4039   57.5695   64.4299 O   0  0  0  0  0  0  0  0  0  0  0  0
  -44.2785   57.4856   65.6265 C   0  0  0  0  0  0  0  0  0  0  0  0
  -45.4033   57.4457   66.6150 C   0  0  0  0  0  0  0  0  0  0  0  0
  -46.6849   58.0825   66.0909 C   0  0  0  0  0  0  0  0  0  0  0  0
  -47.8771   57.1422   66.0465 C   0  0  0  0  0  0  0  0  0  0  0  0
  -49.1511   57.8047   65.5524 C   0  0  0  0  0  0  0  0  0  0  0  0
  -49.4518   59.1133   66.2627 C   0  0  0  0  0  0  0  0  0  0  0  0
  -49.2087   60.3144   65.3761 C   0  0  0  0  0  0  0  0  0  0  0  0
  -50.4624   61.0430   64.9364 C   0  0  0  0  0  0  0  0  0  0  0  0
  -51.4435   60.1853   64.2335 C   0  0  0  0  0  0  0  0  0  0  0  0
  -51.3080   59.6830   63.0235 C   0  0  0  0  0  0  0  0  0  0  0  0
  -50.1327   59.8273   62.1122 C   0  0  0  0  0  0  0  0  0  0  0  0
  -49.4351   58.4777   61.9348 C   0  0  0  0  0  0  0  0  0  0  0  0
  -50.1169   57.5122   60.9765 C   0  0  0  0  0  0  0  0  0  0  0  0
  -49.6639   57.6174   59.5253 C   0  0  0  0  0  0  0  0  0  0  0  0
  -48.4326   56.7749   59.2089 C   0  0  0  0  0  0  0  0  0  0  0  0
  -47.1524   57.5853   59.0817 C   0  0  0  0  0  0  0  0  0  0  0  0
  -46.8759   58.1535   57.6978 C   0  0  0  0  0  0  0  0  0  0  0  0
  -47.2153   57.1941   56.5988 C   0  0  0  0  0  0  0  0  0  0  0  0
  -43.1020   57.4025   66.2547 O   0  0  0  0  0  0  0  0  0  0  0  0
  -42.5512   58.6136   66.8174 C   0  0  0  0  0  0  0  0  0  0  0  0
  -41.4646   59.1950   65.9380 C   0  0  0  0  0  0  0  0  0  0  0  0
  -41.9503   59.4372   64.6106 O   0  0  0  0  0  0  0  0  0  0  0  0
  -42.6577   60.1003   64.6412 H   0  0  0  0  0  0  0  0  0  0  0  0
  -40.8831   60.4706   66.5010 C   0  0  0  0  0  0  0  0  0  0  0  0
  -39.8557   61.0196   65.6405 O   0  0  0  0  0  0  0  0  0  0  0  0
  -38.3051   60.6561   65.4419 P   0  0  0  0  0  0  0  0  0  0  0  0
  -38.0134   59.3704   66.2139 O   0  0  0  0  0  0  0  0  0  0  0  0
  -37.4857   61.7458   66.0160 O   0  0  0  0  0  0  0  0  0  0  0  0
  -37.7182   61.8676   66.9498 H   0  0  0  0  0  0  0  0  0  0  0  0
  -37.9414   60.4161   63.8560 O   0  0  0  0  0  0  0  0  0  0  0  0
  -37.7468   59.1280   63.2111 C   0  0  0  0  0  0  0  0  0  0  0  0
  -39.0799   58.4924   62.9030 C   0  0  0  0  0  0  0  0  0  0  0  0
  -39.6465   58.7451   61.5181 N   0  0  0  0  0  0  0  0  0  0  0  0
  -38.5564   58.7282   60.4951 C   0  0  0  0  0  0  0  0  0  0  0  0
  -40.3012   60.0874   61.5079 C   0  0  0  0  0  0  0  0  0  0  0  0
  -40.6600   57.6944   61.1641 C   0  0  0  0  0  0  0  0  0  0  0  0
 34 33  1  0  0  0
 34 35  1  0  0  0
 34 36  1  0  0  0
 34 37  1  0  0  0
 22 23  1  0  0  0
 22 25  1  0  0  0
 22 21  1  0  0  0
 27 26  1  0  0  0
 27 28  2  0  0  0
 27 31  1  0  0  0
 27 29  1  0  0  0
 25 26  1  0  0  0
 32 33  1  0  0  0
 32 31  1  0  0  0
 20 21  1  0  0  0
 20  2  1  0  0  0
  1  2  2  0  0  0
  2  3  1  0  0  0
  3  4  1  0  0  0
  4  5  1  0  0  0
  5  6  1  0  0  0
  6  7  1  0  0  0
  7  8  1  0  0  0
  8  9  1  0  0  0
  9 10  1  0  0  0
 10 11  2  0  0  0
 11 12  1  0  0  0
 12 13  1  0  0  0
 13 14  1  0  0  0
 14 15  1  0  0  0
 15 16  1  0  0  0
 16 17  1  0  0  0
 17 18  1  0  0  0
 18 19  1  0  0  0
 23 24  1  0  0  0
 29 30  1  0  0  0
M  CHG 1  28  -1
M  END
> <minimizedAffinity>
-8.38546

> <CNNscore>
0.7344110012

> <CNNaffinity>
6.9097008705

> <CNN_VS>
5.0745601654

> <CNNaffinity_variance>
0.3178880215

$$$$



 37 36  0  0  0  0  0  0  0  0999 V2000
  -42.0290   56.0146   62.6238 O   0  0  0  0  0  0  0  0  0  0  0  0
  -41.6700   57.0393   63.1489 C   0  0  0  0  0  0  0  0  0  0  0  0
  -42.2653   57.6324   64.3889 C   0  0  0  0  0  0  0  0  0  0  0  0
  -43.6235   57.0396   64.7446 C   0  0  0  0  0  0  0  0  0  0  0  0
  -44.7357   58.0648   64.8843 C   0  0  0  0  0  0  0  0  0  0  0  0
  -45.6090   57.8462   66.1072 C   0  0  0  0  0  0  0  0  0  0  0  0
  -47.0873   58.0494   65.8229 C   0  0  0  0  0  0  0  0  0  0  0  0
  -47.3233   59.0197   64.6870 C   0  0  0  0  0  0  0  0  0  0  0  0
  -48.3407   60.1039   64.9792 C   0  0  0  0  0  0  0  0  0  0  0  0
  -49.6031   59.6033   65.5691 C   0  0  0  0  0  0  0  0  0  0  0  0
  -50.7681   59.5280   64.9593 C   0  0  0  0  0  0  0  0  0  0  0  0
  -51.0694   59.8865   63.5404 C   0  0  0  0  0  0  0  0  0  0  0  0
  -51.1817   58.6203   62.6897 C   0  0  0  0  0  0  0  0  0  0  0  0
  -49.9024   58.1921   61.9858 C   0  0  0  0  0  0  0  0  0  0  0  0
  -50.1045   57.2868   60.7767 C   0  0  0  0  0  0  0  0  0  0  0  0
  -49.3990   57.7836   59.5191 C   0  0  0  0  0  0  0  0  0  0  0  0
  -47.8851   57.6541   59.5746 C   0  0  0  0  0  0  0  0  0  0  0  0
  -47.1361   58.2568   58.3956 C   0  0  0  0  0  0  0  0  0  0  0  0
  -47.3159   57.4723   57.1323 C   0  0  0  0  0  0  0  0  0  0  0  0
  -40.6665   57.8007   62.7027 O   0  0  0  0  0  0  0  0  0  0  0  0
  -39.4618   57.1371   62.2611 C   0  0  0  0  0  0  0  0  0  0  0  0
  -38.2205   57.9023   62.6683 C   0  0  0  0  0  0  0  0  0  0  0  0
  -37.0556   57.3801   62.0151 O   0  0  0  0  0  0  0  0  0  0  0  0
  -37.1431   57.4966   61.0562 H   0  0  0  0  0  0  0  0  0  0  0  0
  -38.3331   59.3824   62.3876 C   0  0  0  0  0  0  0  0  0  0  0  0
  -38.7062   60.1281   63.5717 O   0  0  0  0  0  0  0  0  0  0  0  0
  -38.1800   60.0826   65.0873 P   0  0  0  0  0  0  0  0  0  0  0  0
  -38.8005   58.8658   65.7718 O   0  0  0  0  0  0  0  0  0  0  0  0
  -38.6419   61.3020   65.7860 O   0  0  0  0  0  0  0  0  0  0  0  0
  -39.6088   61.3578   65.7339 H   0  0  0  0  0  0  0  0  0  0  0  0
  -36.5420   59.9492   65.1520 O   0  0  0  0  0  0  0  0  0  0  0  0
  -35.5866   60.9349   64.6739 C   0  0  0  0  0  0  0  0  0  0  0  0
  -34.7706   61.4709   65.8241 C   0  0  0  0  0  0  0  0  0  0  0  0
  -34.9547   62.9397   66.1582 N   0  0  0  0  0  0  0  0  0  0  0  0
  -35.9600   63.1060   67.2523 C   0  0  0  0  0  0  0  0  0  0  0  0
  -35.4431   63.6492   64.9382 C   0  0  0  0  0  0  0  0  0  0  0  0
  -33.6532   63.5465   66.5992 C   0  0  0  0  0  0  0  0  0  0  0  0
 34 33  1  0  0  0
 34 35  1  0  0  0
 34 36  1  0  0  0
 34 37  1  0  0  0
 22 23  1  0  0  0
 22 25  1  0  0  0
 22 21  1  0  0  0
 27 26  1  0  0  0
 27 28  2  0  0  0
 27 31  1  0  0  0
 27 29  1  0  0  0
 25 26  1  0  0  0
 32 33  1  0  0  0
 32 31  1  0  0  0
 20 21  1  0  0  0
 20  2  1  0  0  0
  1  2  2  0  0  0
  2  3  1  0  0  0
  3  4  1  0  0  0
  4  5  1  0  0  0
  5  6  1  0  0  0
  6  7  1  0  0  0
  7  8  1  0  0  0
  8  9  1  0  0  0
  9 10  1  0  0  0
 10 11  2  0  0  0
 11 12  1  0  0  0
 12 13  1  0  0  0
 13 14  1  0  0  0
 14 15  1  0  0  0
 15 16  1  0  0  0
 16 17  1  0  0  0
 17 18  1  0  0  0
 18 19  1  0  0  0
 23 24  1  0  0  0
 29 30  1  0  0  0
M  CHG 1  28  -1
M  END
> <minimizedAffinity>
-8.02516

> <CNNscore>
0.7116219997

> <CNNaffinity>
6.5888776779

> <CNN_VS>
4.6887903214

> <CNNaffinity_variance>
0.2751776576

$$$$
