


 17 16  0  0  0  0  0  0  0  0999 V2000
  -49.9814   58.3187   60.9680 C   0  0  0  0  0  0  0  0  0  0  0  0
  -49.9798   59.8111   60.7963 C   0  0  0  0  0  0  0  0  0  0  0  0
  -49.7284   57.7973   62.1766 C   0  0  0  0  0  0  0  0  0  0  0  0
  -50.2702   57.4049   59.7957 C   0  0  0  0  0  0  0  0  0  0  0  0
  -49.1280   56.4158   59.5878 C   0  0  0  0  0  0  0  0  0  0  0  0
  -46.4760   57.4141   60.0117 C   0  0  0  0  0  0  0  0  0  0  0  0
  -47.0251   57.3038   58.6221 C   0  0  0  0  0  0  0  0  0  0  0  0
  -46.1804   57.7210   57.4559 C   0  0  0  0  0  0  0  0  0  0  0  0
  -48.2669   56.8388   58.4200 C   0  0  0  0  0  0  0  0  0  0  0  0
  -49.4452   58.7043   63.3520 C   0  0  0  0  0  0  0  0  0  0  0  0
  -48.1141   58.3325   63.9940 C   0  0  0  0  0  0  0  0  0  0  0  0
  -48.3514   57.6671   65.3324 C   0  0  0  0  0  0  0  0  0  0  0  0
  -49.6464   57.8860   66.0510 C   0  0  0  0  0  0  0  0  0  0  0  0
  -47.4142   56.8748   65.8735 C   0  0  0  0  0  0  0  0  0  0  0  0
  -47.9855   54.8233   67.0120 O   0  0  0  0  0  0  0  0  0  0  0  0
  -47.6350   56.1979   67.2070 C   0  0  0  0  0  0  0  0  0  0  0  0
  -48.1246   54.3998   67.8735 H   0  0  0  0  0  0  0  0  0  0  0  0
  6  7  1  0  0  0
 15 16  1  0  0  0
  7  8  1  0  0  0
  7  9  2  0  0  0
  9  5  1  0  0  0
  5  4  1  0  0  0
  4  1  1  0  0  0
  1  2  1  0  0  0
  1  3  2  0  0  0
  3 10  1  0  0  0
 10 11  1  0  0  0
 11 12  1  0  0  0
 12 13  1  0  0  0
 12 14  2  0  0  0
 14 16  1  0  0  0
 15 17  1  0  0  0
M  END
> <minimizedAffinity>
-7.89703

$$$$



 17 16  0  0  0  0  0  0  0  0999 V2000
  -49.7884   57.9711   61.1103 C   0  0  0  0  0  0  0  0  0  0  0  0
  -49.2876   57.8736   62.5233 C   0  0  0  0  0  0  0  0  0  0  0  0
  -49.9587   59.1800   60.5568 C   0  0  0  0  0  0  0  0  0  0  0  0
  -50.0950   56.7230   60.3097 C   0  0  0  0  0  0  0  0  0  0  0  0
  -48.8074   56.0382   59.8631 C   0  0  0  0  0  0  0  0  0  0  0  0
  -46.3499   57.4912   60.1053 C   0  0  0  0  0  0  0  0  0  0  0  0
  -47.0613   57.4307   58.7882 C   0  0  0  0  0  0  0  0  0  0  0  0
  -46.4816   58.1365   57.5994 C   0  0  0  0  0  0  0  0  0  0  0  0
  -48.2130   56.7531   58.6716 C   0  0  0  0  0  0  0  0  0  0  0  0
  -49.6489   60.4294   61.3487 C   0  0  0  0  0  0  0  0  0  0  0  0
  -48.4733   61.1703   60.7231 C   0  0  0  0  0  0  0  0  0  0  0  0
  -47.3793   61.3686   61.7498 C   0  0  0  0  0  0  0  0  0  0  0  0
  -47.6930   61.2227   63.2065 C   0  0  0  0  0  0  0  0  0  0  0  0
  -46.1293   61.6634   61.3631 C   0  0  0  0  0  0  0  0  0  0  0  0
  -43.9516   62.6137   61.7940 O   0  0  0  0  0  0  0  0  0  0  0  0
  -45.0225   61.8604   62.3737 C   0  0  0  0  0  0  0  0  0  0  0  0
  -43.2480   62.7337   62.4509 H   0  0  0  0  0  0  0  0  0  0  0  0
  6  7  1  0  0  0
 15 16  1  0  0  0
  7  8  1  0  0  0
  7  9  2  0  0  0
  9  5  1  0  0  0
  5  4  1  0  0  0
  4  1  1  0  0  0
  1  2  1  0  0  0
  1  3  2  0  0  0
  3 10  1  0  0  0
 10 11  1  0  0  0
 11 12  1  0  0  0
 12 13  1  0  0  0
 12 14  2  0  0  0
 14 16  1  0  0  0
 15 17  1  0  0  0
M  END
> <minimizedAffinity>
-7.58090

$$$$



 17 16  0  0  0  0  0  0  0  0999 V2000
  -49.9266   58.4671   61.0755 C   0  0  0  0  0  0  0  0  0  0  0  0
  -49.6223   57.6967   62.3288 C   0  0  0  0  0  0  0  0  0  0  0  0
  -49.9257   59.8070   61.1128 C   0  0  0  0  0  0  0  0  0  0  0  0
  -50.2268   57.7470   59.7779 C   0  0  0  0  0  0  0  0  0  0  0  0
  -49.2153   56.6322   59.5323 C   0  0  0  0  0  0  0  0  0  0  0  0
  -46.5025   57.4636   59.9315 C   0  0  0  0  0  0  0  0  0  0  0  0
  -47.0603   57.3568   58.5451 C   0  0  0  0  0  0  0  0  0  0  0  0
  -46.1922   57.6898   57.3691 C   0  0  0  0  0  0  0  0  0  0  0  0
  -48.3304   56.9699   58.3546 C   0  0  0  0  0  0  0  0  0  0  0  0
  -49.6210   60.5317   62.4036 C   0  0  0  0  0  0  0  0  0  0  0  0
  -48.1633   60.9751   62.4260 C   0  0  0  0  0  0  0  0  0  0  0  0
  -47.5545   60.6887   63.7816 C   0  0  0  0  0  0  0  0  0  0  0  0
  -46.0796   60.8501   63.9821 C   0  0  0  0  0  0  0  0  0  0  0  0
  -48.3283   60.3018   64.8065 C   0  0  0  0  0  0  0  0  0  0  0  0
  -48.7694   60.0146   67.1632 O   0  0  0  0  0  0  0  0  0  0  0  0
  -47.7390   60.0158   66.1689 C   0  0  0  0  0  0  0  0  0  0  0  0
  -48.3798   59.8302   68.0323 H   0  0  0  0  0  0  0  0  0  0  0  0
  6  7  1  0  0  0
 15 16  1  0  0  0
  7  8  1  0  0  0
  7  9  2  0  0  0
  9  5  1  0  0  0
  5  4  1  0  0  0
  4  1  1  0  0  0
  1  2  1  0  0  0
  1  3  2  0  0  0
  3 10  1  0  0  0
 10 11  1  0  0  0
 11 12  1  0  0  0
 12 13  1  0  0  0
 12 14  2  0  0  0
 14 16  1  0  0  0
 15 17  1  0  0  0
M  END
> <minimizedAffinity>
-7.49546

$$$$



 17 16  0  0  0  0  0  0  0  0999 V2000
  -49.9834   58.3356   60.9788 C   0  0  0  0  0  0  0  0  0  0  0  0
  -49.9643   59.8238   60.7742 C   0  0  0  0  0  0  0  0  0  0  0  0
  -49.7083   57.8368   62.1921 C   0  0  0  0  0  0  0  0  0  0  0  0
  -50.3145   57.4011   59.8344 C   0  0  0  0  0  0  0  0  0  0  0  0
  -49.1673   56.4281   59.5826 C   0  0  0  0  0  0  0  0  0  0  0  0
  -48.3121   56.3768   56.8485 C   0  0  0  0  0  0  0  0  0  0  0  0
  -47.5301   57.1487   57.8669 C   0  0  0  0  0  0  0  0  0  0  0  0
  -46.2970   57.8912   57.4479 C   0  0  0  0  0  0  0  0  0  0  0  0
  -47.9263   57.1733   59.1482 C   0  0  0  0  0  0  0  0  0  0  0  0
  -49.3828   58.7647   63.3399 C   0  0  0  0  0  0  0  0  0  0  0  0
  -49.6261   58.0614   64.6697 C   0  0  0  0  0  0  0  0  0  0  0  0
  -48.3076   57.6496   65.2878 C   0  0  0  0  0  0  0  0  0  0  0  0
  -47.0228   58.0514   64.6324 C   0  0  0  0  0  0  0  0  0  0  0  0
  -48.2823   56.9367   66.4236 C   0  0  0  0  0  0  0  0  0  0  0  0
  -47.0823   56.5632   68.4856 O   0  0  0  0  0  0  0  0  0  0  0  0
  -46.9750   56.5203   67.0583 C   0  0  0  0  0  0  0  0  0  0  0  0
  -46.2386   56.2943   68.8815 H   0  0  0  0  0  0  0  0  0  0  0  0
  6  7  1  0  0  0
 15 16  1  0  0  0
  7  8  1  0  0  0
  7  9  2  0  0  0
  9  5  1  0  0  0
  5  4  1  0  0  0
  4  1  1  0  0  0
  1  2  1  0  0  0
  1  3  2  0  0  0
  3 10  1  0  0  0
 10 11  1  0  0  0
 11 12  1  0  0  0
 12 13  1  0  0  0
 12 14  2  0  0  0
 14 16  1  0  0  0
 15 17  1  0  0  0
M  END
> <minimizedAffinity>
-7.42362

$$$$



 17 16  0  0  0  0  0  0  0  0999 V2000
  -48.3585   59.0594   60.8773 C   0  0  0  0  0  0  0  0  0  0  0  0
  -49.7532   59.5530   60.6165 C   0  0  0  0  0  0  0  0  0  0  0  0
  -48.1323   58.2569   61.9268 C   0  0  0  0  0  0  0  0  0  0  0  0
  -47.2148   59.4540   59.9669 C   0  0  0  0  0  0  0  0  0  0  0  0
  -46.4749   58.2191   59.4630 C   0  0  0  0  0  0  0  0  0  0  0  0
  -47.9683   55.7925   59.1618 C   0  0  0  0  0  0  0  0  0  0  0  0
  -47.7032   56.6651   57.9731 C   0  0  0  0  0  0  0  0  0  0  0  0
  -48.2211   56.2600   56.6259 C   0  0  0  0  0  0  0  0  0  0  0  0
  -47.0027   57.8007   58.1100 C   0  0  0  0  0  0  0  0  0  0  0  0
  -49.2708   57.8548   62.8359 C   0  0  0  0  0  0  0  0  0  0  0  0
  -49.2785   58.7265   64.0858 C   0  0  0  0  0  0  0  0  0  0  0  0
  -49.1510   57.8626   65.3218 C   0  0  0  0  0  0  0  0  0  0  0  0
  -50.2689   57.8210   66.3169 C   0  0  0  0  0  0  0  0  0  0  0  0
  -48.0487   57.1264   65.5261 C   0  0  0  0  0  0  0  0  0  0  0  0
  -47.5537   54.9192   66.3712 O   0  0  0  0  0  0  0  0  0  0  0  0
  -47.9053   56.2539   66.7522 C   0  0  0  0  0  0  0  0  0  0  0  0
  -47.4646   54.3691   67.1652 H   0  0  0  0  0  0  0  0  0  0  0  0
  6  7  1  0  0  0
 15 16  1  0  0  0
  7  8  1  0  0  0
  7  9  2  0  0  0
  9  5  1  0  0  0
  5  4  1  0  0  0
  4  1  1  0  0  0
  1  2  1  0  0  0
  1  3  2  0  0  0
  3 10  1  0  0  0
 10 11  1  0  0  0
 11 12  1  0  0  0
 12 13  1  0  0  0
 12 14  2  0  0  0
 14 16  1  0  0  0
 15 17  1  0  0  0
M  END
> <minimizedAffinity>
-7.34494

$$$$



 17 16  0  0  0  0  0  0  0  0999 V2000
  -50.0405   58.4430   60.8767 C   0  0  0  0  0  0  0  0  0  0  0  0
  -49.9872   59.9441   60.8979 C   0  0  0  0  0  0  0  0  0  0  0  0
  -49.7579   57.7607   61.9953 C   0  0  0  0  0  0  0  0  0  0  0  0
  -50.4142   57.6995   59.6117 C   0  0  0  0  0  0  0  0  0  0  0  0
  -49.3721   56.6354   59.2829 C   0  0  0  0  0  0  0  0  0  0  0  0
  -48.2288   56.3804   56.6681 C   0  0  0  0  0  0  0  0  0  0  0  0
  -47.5127   57.1583   57.7295 C   0  0  0  0  0  0  0  0  0  0  0  0
  -46.1944   57.7996   57.4165 C   0  0  0  0  0  0  0  0  0  0  0  0
  -48.0440   57.2781   58.9553 C   0  0  0  0  0  0  0  0  0  0  0  0
  -49.3899   58.4973   63.2628 C   0  0  0  0  0  0  0  0  0  0  0  0
  -47.9755   58.1284   63.6933 C   0  0  0  0  0  0  0  0  0  0  0  0
  -46.9655   58.9124   62.8837 C   0  0  0  0  0  0  0  0  0  0  0  0
  -46.0338   58.1912   61.9599 C   0  0  0  0  0  0  0  0  0  0  0  0
  -46.9066   60.2489   62.9803 C   0  0  0  0  0  0  0  0  0  0  0  0
  -44.7872   61.4061   62.9931 O   0  0  0  0  0  0  0  0  0  0  0  0
  -45.9078   61.0494   62.1761 C   0  0  0  0  0  0  0  0  0  0  0  0
  -44.1538   61.9188   62.4670 H   0  0  0  0  0  0  0  0  0  0  0  0
  6  7  1  0  0  0
 15 16  1  0  0  0
  7  8  1  0  0  0
  7  9  2  0  0  0
  9  5  1  0  0  0
  5  4  1  0  0  0
  4  1  1  0  0  0
  1  2  1  0  0  0
  1  3  2  0  0  0
  3 10  1  0  0  0
 10 11  1  0  0  0
 11 12  1  0  0  0
 12 13  1  0  0  0
 12 14  2  0  0  0
 14 16  1  0  0  0
 15 17  1  0  0  0
M  END
> <minimizedAffinity>
-7.22583

$$$$



 17 16  0  0  0  0  0  0  0  0999 V2000
  -49.1023   59.2881   61.3730 C   0  0  0  0  0  0  0  0  0  0  0  0
  -49.9259   58.1981   60.7480 C   0  0  0  0  0  0  0  0  0  0  0  0
  -48.8902   59.2729   62.6965 C   0  0  0  0  0  0  0  0  0  0  0  0
  -48.5091   60.3932   60.5248 C   0  0  0  0  0  0  0  0  0  0  0  0
  -47.0457   60.1038   60.2072 C   0  0  0  0  0  0  0  0  0  0  0  0
  -46.1361   57.3952   59.9942 C   0  0  0  0  0  0  0  0  0  0  0  0
  -46.4944   58.1675   58.7614 C   0  0  0  0  0  0  0  0  0  0  0  0
  -46.3717   57.5162   57.4167 C   0  0  0  0  0  0  0  0  0  0  0  0
  -46.9186   59.4364   58.8572 C   0  0  0  0  0  0  0  0  0  0  0  0
  -49.4748   58.1692   63.5477 C   0  0  0  0  0  0  0  0  0  0  0  0
  -49.8251   58.7024   64.9316 C   0  0  0  0  0  0  0  0  0  0  0  0
  -48.7205   58.3695   65.9109 C   0  0  0  0  0  0  0  0  0  0  0  0
  -47.7829   59.4445   66.3659 C   0  0  0  0  0  0  0  0  0  0  0  0
  -48.5825   57.1213   66.3817 C   0  0  0  0  0  0  0  0  0  0  0  0
  -46.3856   56.1645   66.6808 O   0  0  0  0  0  0  0  0  0  0  0  0
  -47.4883   56.7708   67.3641 C   0  0  0  0  0  0  0  0  0  0  0  0
  -45.6905   55.9442   67.3205 H   0  0  0  0  0  0  0  0  0  0  0  0
  6  7  1  0  0  0
 15 16  1  0  0  0
  7  8  1  0  0  0
  7  9  2  0  0  0
  9  5  1  0  0  0
  5  4  1  0  0  0
  4  1  1  0  0  0
  1  2  1  0  0  0
  1  3  2  0  0  0
  3 10  1  0  0  0
 10 11  1  0  0  0
 11 12  1  0  0  0
 12 13  1  0  0  0
 12 14  2  0  0  0
 14 16  1  0  0  0
 15 17  1  0  0  0
M  END
> <minimizedAffinity>
-7.17285

$$$$



 17 16  0  0  0  0  0  0  0  0999 V2000
  -49.1274   58.2528   61.7318 C   0  0  0  0  0  0  0  0  0  0  0  0
  -49.8767   58.2420   60.4298 C   0  0  0  0  0  0  0  0  0  0  0  0
  -47.7988   58.4305   61.7225 C   0  0  0  0  0  0  0  0  0  0  0  0
  -49.8567   58.0713   63.0463 C   0  0  0  0  0  0  0  0  0  0  0  0
  -49.0654   58.6916   64.1931 C   0  0  0  0  0  0  0  0  0  0  0  0
  -46.6966   57.4174   65.1803 C   0  0  0  0  0  0  0  0  0  0  0  0
  -48.0076   57.2103   65.8754 C   0  0  0  0  0  0  0  0  0  0  0  0
  -48.0731   56.3310   67.0879 C   0  0  0  0  0  0  0  0  0  0  0  0
  -49.1189   57.8035   65.4149 C   0  0  0  0  0  0  0  0  0  0  0  0
  -47.0659   58.6181   60.4141 C   0  0  0  0  0  0  0  0  0  0  0  0
  -46.2489   57.3742   60.0864 C   0  0  0  0  0  0  0  0  0  0  0  0
  -46.5232   56.9327   58.6650 C   0  0  0  0  0  0  0  0  0  0  0  0
  -46.2229   57.8600   57.5286 C   0  0  0  0  0  0  0  0  0  0  0  0
  -47.0233   55.7133   58.4163 C   0  0  0  0  0  0  0  0  0  0  0  0
  -48.6369   55.5956   56.6237 O   0  0  0  0  0  0  0  0  0  0  0  0
  -47.2994   55.2530   57.0031 C   0  0  0  0  0  0  0  0  0  0  0  0
  -48.8024   55.2957   55.7162 H   0  0  0  0  0  0  0  0  0  0  0  0
  6  7  1  0  0  0
 15 16  1  0  0  0
  7  8  1  0  0  0
  7  9  2  0  0  0
  9  5  1  0  0  0
  5  4  1  0  0  0
  4  1  1  0  0  0
  1  2  1  0  0  0
  1  3  2  0  0  0
  3 10  1  0  0  0
 10 11  1  0  0  0
 11 12  1  0  0  0
 12 13  1  0  0  0
 12 14  2  0  0  0
 14 16  1  0  0  0
 15 17  1  0  0  0
M  END
> <minimizedAffinity>
-7.11476

$$$$



 17 16  0  0  0  0  0  0  0  0999 V2000
  -46.6203   57.7635   59.0515 C   0  0  0  0  0  0  0  0  0  0  0  0
  -46.5329   58.5422   57.7697 C   0  0  0  0  0  0  0  0  0  0  0  0
  -46.6430   58.4220   60.2187 C   0  0  0  0  0  0  0  0  0  0  0  0
  -46.6884   56.2509   59.0352 C   0  0  0  0  0  0  0  0  0  0  0  0
  -47.9985   55.7627   59.6447 C   0  0  0  0  0  0  0  0  0  0  0  0
  -49.7352   57.1014   61.4888 C   0  0  0  0  0  0  0  0  0  0  0  0
  -49.9668   57.2232   60.0136 C   0  0  0  0  0  0  0  0  0  0  0  0
  -51.1133   58.0466   59.5087 C   0  0  0  0  0  0  0  0  0  0  0  0
  -49.1570   56.5962   59.1475 C   0  0  0  0  0  0  0  0  0  0  0  0
  -46.5813   59.9320   60.2413 C   0  0  0  0  0  0  0  0  0  0  0  0
  -47.9825   60.5132   60.3863 C   0  0  0  0  0  0  0  0  0  0  0  0
  -48.3008   60.7420   61.8480 C   0  0  0  0  0  0  0  0  0  0  0  0
  -47.2391   61.2627   62.7662 C   0  0  0  0  0  0  0  0  0  0  0  0
  -49.5296   60.4916   62.3235 C   0  0  0  0  0  0  0  0  0  0  0  0
  -49.7331   59.4971   64.5146 O   0  0  0  0  0  0  0  0  0  0  0  0
  -49.8675   60.7185   63.7794 C   0  0  0  0  0  0  0  0  0  0  0  0
  -49.9522   59.6547   65.4463 H   0  0  0  0  0  0  0  0  0  0  0  0
  6  7  1  0  0  0
 15 16  1  0  0  0
  7  8  1  0  0  0
  7  9  2  0  0  0
  9  5  1  0  0  0
  5  4  1  0  0  0
  4  1  1  0  0  0
  1  2  1  0  0  0
  1  3  2  0  0  0
  3 10  1  0  0  0
 10 11  1  0  0  0
 11 12  1  0  0  0
 12 13  1  0  0  0
 12 14  2  0  0  0
 14 16  1  0  0  0
 15 17  1  0  0  0
M  END
> <minimizedAffinity>
-6.95572

$$$$
