


 19 18  0  0  0  0  0  0  0  0999 V2000
  -50.5905   58.9700   62.0761 C   0  0  0  0  0  0  0  0  0  0  0  0
  -50.3488   58.5490   63.5191 C   0  0  0  0  0  0  0  0  0  0  0  0
  -50.3276   59.7304   64.4741 C   0  0  0  0  0  0  0  0  0  0  0  0
  -50.2872   59.2411   65.9125 C   0  0  0  0  0  0  0  0  0  0  0  0
  -48.8483   59.2497   66.3961 C   0  0  0  0  0  0  0  0  0  0  0  0
  -48.1948   57.8852   66.2448 C   0  0  0  0  0  0  0  0  0  0  0  0
  -46.9980   57.8059   67.1597 C   0  0  0  0  0  0  0  0  0  0  0  0
  -46.3049   56.7704   67.1930 O   0  0  0  0  0  0  0  0  0  0  0  0
  -46.6831   58.7634   67.8979 O   0  0  0  0  0  0  0  0  0  0  0  0
  -47.1917   59.5502   67.8872 H   0  0  0  0  0  0  0  0  0  0  0  0
  -49.6753   58.1253   61.2017 C   0  0  0  0  0  0  0  0  0  0  0  0
  -50.1703   58.0562   59.7770 C   0  0  0  0  0  0  0  0  0  0  0  0
  -49.3156   58.5472   58.6844 C   0  0  0  0  0  0  0  0  0  0  0  0
  -48.0590   59.3082   59.0254 C   0  0  0  0  0  0  0  0  0  0  0  0
  -47.0777   59.2806   57.8587 C   0  0  0  0  0  0  0  0  0  0  0  0
  -46.3059   57.9613   57.8465 C   0  0  0  0  0  0  0  0  0  0  0  0
  -46.6294   57.1281   56.6072 C   0  0  0  0  0  0  0  0  0  0  0  0
  -47.0156   55.6920   56.9702 C   0  0  0  0  0  0  0  0  0  0  0  0
  -47.2334   55.4956   58.4682 C   0  0  0  0  0  0  0  0  0  0  0  0
  7  8  2  0  0  0
  7  6  1  0  0  0
  7  9  1  0  0  0
  6  5  1  0  0  0
  5  4  1  0  0  0
  4  3  1  0  0  0
  3  2  1  0  0  0
  2  1  1  0  0  0
  1 11  1  0  0  0
 11 12  1  0  0  0
 12 13  2  0  0  0
 13 14  1  0  0  0
 14 15  1  0  0  0
 15 16  1  0  0  0
 16 17  1  0  0  0
 17 18  1  0  0  0
 18 19  1  0  0  0
  9 10  1  0  0  0
M  END
> <minimizedAffinity>
-6.98415

> <CNNscore>
0.6850394011

> <CNNaffinity>
6.0549488068

> <CNN_VS>
4.1478786469

> <CNNaffinity_variance>
0.1514048278

$$$$



 19 18  0  0  0  0  0  0  0  0999 V2000
  -51.0584   57.4647   60.8836 C   0  0  0  0  0  0  0  0  0  0  0  0
  -50.3211   58.2021   61.9928 C   0  0  0  0  0  0  0  0  0  0  0  0
  -51.0757   59.4283   62.4778 C   0  0  0  0  0  0  0  0  0  0  0  0
  -50.7171   59.7263   63.9244 C   0  0  0  0  0  0  0  0  0  0  0  0
  -49.9683   58.5387   64.5017 C   0  0  0  0  0  0  0  0  0  0  0  0
  -49.9791   58.5506   66.0221 C   0  0  0  0  0  0  0  0  0  0  0  0
  -48.6499   59.0594   66.5220 C   0  0  0  0  0  0  0  0  0  0  0  0
  -47.5991   58.4593   66.2232 O   0  0  0  0  0  0  0  0  0  0  0  0
  -48.5759   60.0782   67.2414 O   0  0  0  0  0  0  0  0  0  0  0  0
  -49.3547   60.5430   67.4769 H   0  0  0  0  0  0  0  0  0  0  0  0
  -50.1107   57.3739   59.6964 C   0  0  0  0  0  0  0  0  0  0  0  0
  -49.1378   56.2288   59.8437 C   0  0  0  0  0  0  0  0  0  0  0  0
  -48.2047   55.9205   58.7484 C   0  0  0  0  0  0  0  0  0  0  0  0
  -48.3852   56.6095   57.4191 C   0  0  0  0  0  0  0  0  0  0  0  0
  -47.0411   56.8080   56.7270 C   0  0  0  0  0  0  0  0  0  0  0  0
  -46.1945   57.8230   57.4947 C   0  0  0  0  0  0  0  0  0  0  0  0
  -46.9509   59.1301   57.7269 C   0  0  0  0  0  0  0  0  0  0  0  0
  -46.8659   59.5871   59.1855 C   0  0  0  0  0  0  0  0  0  0  0  0
  -48.0938   60.3753   59.6338 C   0  0  0  0  0  0  0  0  0  0  0  0
  7  8  2  0  0  0
  7  6  1  0  0  0
  7  9  1  0  0  0
  6  5  1  0  0  0
  5  4  1  0  0  0
  4  3  1  0  0  0
  3  2  1  0  0  0
  2  1  1  0  0  0
  1 11  1  0  0  0
 11 12  1  0  0  0
 12 13  2  0  0  0
 13 14  1  0  0  0
 14 15  1  0  0  0
 15 16  1  0  0  0
 16 17  1  0  0  0
 17 18  1  0  0  0
 18 19  1  0  0  0
  9 10  1  0  0  0
M  END
> <minimizedAffinity>
-7.52743

> <CNNscore>
0.5147120953

> <CNNaffinity>
5.8990440369

> <CNN_VS>
3.0363092422

> <CNNaffinity_variance>
0.0932241380

$$$$



 19 18  0  0  0  0  0  0  0  0999 V2000
  -50.3505   58.1240   62.1886 C   0  0  0  0  0  0  0  0  0  0  0  0
  -51.0968   57.6137   60.9637 C   0  0  0  0  0  0  0  0  0  0  0  0
  -50.1668   57.0077   59.9264 C   0  0  0  0  0  0  0  0  0  0  0  0
  -50.0005   57.9584   58.7522 C   0  0  0  0  0  0  0  0  0  0  0  0
  -48.5723   57.8711   58.2453 C   0  0  0  0  0  0  0  0  0  0  0  0
  -48.4721   57.0260   56.9853 C   0  0  0  0  0  0  0  0  0  0  0  0
  -47.7000   55.7675   57.2941 C   0  0  0  0  0  0  0  0  0  0  0  0
  -46.9976   55.2338   56.4134 O   0  0  0  0  0  0  0  0  0  0  0  0
  -47.7514   55.2374   58.4243 O   0  0  0  0  0  0  0  0  0  0  0  0
  -48.2739   55.6236   59.0995 H   0  0  0  0  0  0  0  0  0  0  0  0
  -50.4751   59.6407   62.1917 C   0  0  0  0  0  0  0  0  0  0  0  0
  -51.6662   60.1024   62.9966 C   0  0  0  0  0  0  0  0  0  0  0  0
  -51.4957   60.4484   64.4166 C   0  0  0  0  0  0  0  0  0  0  0  0
  -50.1877   60.1271   65.0950 C   0  0  0  0  0  0  0  0  0  0  0  0
  -50.3931   59.1042   66.2069 C   0  0  0  0  0  0  0  0  0  0  0  0
  -49.5451   57.8596   65.9453 C   0  0  0  0  0  0  0  0  0  0  0  0
  -48.3394   58.1724   65.0604 C   0  0  0  0  0  0  0  0  0  0  0  0
  -47.1262   57.3126   65.4244 C   0  0  0  0  0  0  0  0  0  0  0  0
  -47.5106   55.9935   66.0892 C   0  0  0  0  0  0  0  0  0  0  0  0
  7  8  2  0  0  0
  7  6  1  0  0  0
  7  9  1  0  0  0
  6  5  1  0  0  0
  5  4  1  0  0  0
  4  3  1  0  0  0
  3  2  1  0  0  0
  2  1  1  0  0  0
  1 11  1  0  0  0
 11 12  1  0  0  0
 12 13  2  0  0  0
 13 14  1  0  0  0
 14 15  1  0  0  0
 15 16  1  0  0  0
 16 17  1  0  0  0
 17 18  1  0  0  0
 18 19  1  0  0  0
  9 10  1  0  0  0
M  END
> <minimizedAffinity>
-7.43621

> <CNNscore>
0.4981344044

> <CNNaffinity>
6.0692358017

> <CNN_VS>
3.0232951641

> <CNNaffinity_variance>
0.0336269066

$$$$



 19 18  0  0  0  0  0  0  0  0999 V2000
  -49.5404   60.4547   60.5043 C   0  0  0  0  0  0  0  0  0  0  0  0
  -49.4837   59.8725   61.9099 C   0  0  0  0  0  0  0  0  0  0  0  0
  -50.8066   59.2620   62.3406 C   0  0  0  0  0  0  0  0  0  0  0  0
  -51.4260   60.0868   63.4568 C   0  0  0  0  0  0  0  0  0  0  0  0
  -50.3825   60.3213   64.5342 C   0  0  0  0  0  0  0  0  0  0  0  0
  -50.5006   59.3095   65.6629 C   0  0  0  0  0  0  0  0  0  0  0  0
  -49.1735   59.2027   66.3721 C   0  0  0  0  0  0  0  0  0  0  0  0
  -48.5006   58.1571   66.2836 O   0  0  0  0  0  0  0  0  0  0  0  0
  -48.7286   60.1470   67.0585 O   0  0  0  0  0  0  0  0  0  0  0  0
  -49.2198   60.9410   67.1372 H   0  0  0  0  0  0  0  0  0  0  0  0
  -48.1274   60.8851   60.1384 C   0  0  0  0  0  0  0  0  0  0  0  0
  -47.0993   59.8811   60.6015 C   0  0  0  0  0  0  0  0  0  0  0  0
  -46.3928   59.0527   59.6115 C   0  0  0  0  0  0  0  0  0  0  0  0
  -46.8636   59.0655   58.1788 C   0  0  0  0  0  0  0  0  0  0  0  0
  -46.3387   57.8471   57.4272 C   0  0  0  0  0  0  0  0  0  0  0  0
  -47.4353   57.2590   56.5395 C   0  0  0  0  0  0  0  0  0  0  0  0
  -47.8660   55.8727   57.0160 C   0  0  0  0  0  0  0  0  0  0  0  0
  -47.4177   55.5988   58.4539 C   0  0  0  0  0  0  0  0  0  0  0  0
  -48.5149   55.8689   59.4801 C   0  0  0  0  0  0  0  0  0  0  0  0
  7  8  2  0  0  0
  7  6  1  0  0  0
  7  9  1  0  0  0
  6  5  1  0  0  0
  5  4  1  0  0  0
  4  3  1  0  0  0
  3  2  1  0  0  0
  2  1  1  0  0  0
  1 11  1  0  0  0
 11 12  1  0  0  0
 12 13  2  0  0  0
 13 14  1  0  0  0
 14 15  1  0  0  0
 15 16  1  0  0  0
 16 17  1  0  0  0
 17 18  1  0  0  0
 18 19  1  0  0  0
  9 10  1  0  0  0
M  END
> <minimizedAffinity>
-7.37351

> <CNNscore>
0.4980425835

> <CNNaffinity>
5.7165255547

> <CNN_VS>
2.8470730782

> <CNNaffinity_variance>
0.1063910499

$$$$



 19 18  0  0  0  0  0  0  0  0999 V2000
  -47.2515   57.1095   56.3092 C   0  0  0  0  0  0  0  0  0  0  0  0
  -46.4000   57.9181   57.2781 C   0  0  0  0  0  0  0  0  0  0  0  0
  -47.0005   59.2798   57.5837 C   0  0  0  0  0  0  0  0  0  0  0  0
  -47.5191   59.3155   59.0120 C   0  0  0  0  0  0  0  0  0  0  0  0
  -46.3735   59.6666   59.9440 C   0  0  0  0  0  0  0  0  0  0  0  0
  -45.8014   58.4326   60.6235 C   0  0  0  0  0  0  0  0  0  0  0  0
  -44.9849   58.8595   61.8179 C   0  0  0  0  0  0  0  0  0  0  0  0
  -44.5707   58.0074   62.6280 O   0  0  0  0  0  0  0  0  0  0  0  0
  -44.7141   60.0622   62.0203 O   0  0  0  0  0  0  0  0  0  0  0  0
  -45.0165   60.7175   61.4228 H   0  0  0  0  0  0  0  0  0  0  0  0
  -48.1104   56.1689   57.1420 C   0  0  0  0  0  0  0  0  0  0  0  0
  -47.3348   55.5754   58.2935 C   0  0  0  0  0  0  0  0  0  0  0  0
  -47.9772   55.4380   59.6102 C   0  0  0  0  0  0  0  0  0  0  0  0
  -49.3169   56.0908   59.8413 C   0  0  0  0  0  0  0  0  0  0  0  0
  -49.2434   57.0788   61.0003 C   0  0  0  0  0  0  0  0  0  0  0  0
  -50.6346   57.6252   61.3200 C   0  0  0  0  0  0  0  0  0  0  0  0
  -50.5819   59.0907   61.7492 C   0  0  0  0  0  0  0  0  0  0  0  0
  -50.8233   59.2541   63.2521 C   0  0  0  0  0  0  0  0  0  0  0  0
  -51.7437   60.4262   63.5822 C   0  0  0  0  0  0  0  0  0  0  0  0
  7  8  2  0  0  0
  7  6  1  0  0  0
  7  9  1  0  0  0
  6  5  1  0  0  0
  5  4  1  0  0  0
  4  3  1  0  0  0
  3  2  1  0  0  0
  2  1  1  0  0  0
  1 11  1  0  0  0
 11 12  1  0  0  0
 12 13  2  0  0  0
 13 14  1  0  0  0
 14 15  1  0  0  0
 15 16  1  0  0  0
 16 17  1  0  0  0
 17 18  1  0  0  0
 18 19  1  0  0  0
  9 10  1  0  0  0
M  END
> <minimizedAffinity>
-6.62402

> <CNNscore>
0.4659861624

> <CNNaffinity>
5.6642622948

> <CNN_VS>
2.6394679546

> <CNNaffinity_variance>
0.1413303018

$$$$



 19 18  0  0  0  0  0  0  0  0999 V2000
  -49.5929   60.4238   61.1339 C   0  0  0  0  0  0  0  0  0  0  0  0
  -48.9137   59.7127   59.9716 C   0  0  0  0  0  0  0  0  0  0  0  0
  -47.6593   60.4307   59.5033 C   0  0  0  0  0  0  0  0  0  0  0  0
  -47.1864   59.8509   58.1804 C   0  0  0  0  0  0  0  0  0  0  0  0
  -46.5236   58.5098   58.4384 C   0  0  0  0  0  0  0  0  0  0  0  0
  -46.4579   57.6619   57.1780 C   0  0  0  0  0  0  0  0  0  0  0  0
  -47.8570   57.2711   56.7714 C   0  0  0  0  0  0  0  0  0  0  0  0
  -48.6329   56.7687   57.6076 O   0  0  0  0  0  0  0  0  0  0  0  0
  -48.2609   57.4366   55.6008 O   0  0  0  0  0  0  0  0  0  0  0  0
  -47.6924   57.8127   54.9578 H   0  0  0  0  0  0  0  0  0  0  0  0
  -50.2427   59.3532   61.9984 C   0  0  0  0  0  0  0  0  0  0  0  0
  -51.5001   59.8587   62.6640 C   0  0  0  0  0  0  0  0  0  0  0  0
  -51.4396   60.3686   64.0430 C   0  0  0  0  0  0  0  0  0  0  0  0
  -50.1737   60.1738   64.8392 C   0  0  0  0  0  0  0  0  0  0  0  0
  -50.4448   59.3451   66.0901 C   0  0  0  0  0  0  0  0  0  0  0  0
  -49.8444   57.9474   65.9402 C   0  0  0  0  0  0  0  0  0  0  0  0
  -48.6527   57.9431   64.9839 C   0  0  0  0  0  0  0  0  0  0  0  0
  -47.4842   57.1201   65.5322 C   0  0  0  0  0  0  0  0  0  0  0  0
  -47.1114   57.4974   66.9635 C   0  0  0  0  0  0  0  0  0  0  0  0
  7  8  2  0  0  0
  7  6  1  0  0  0
  7  9  1  0  0  0
  6  5  1  0  0  0
  5  4  1  0  0  0
  4  3  1  0  0  0
  3  2  1  0  0  0
  2  1  1  0  0  0
  1 11  1  0  0  0
 11 12  1  0  0  0
 12 13  2  0  0  0
 13 14  1  0  0  0
 14 15  1  0  0  0
 15 16  1  0  0  0
 16 17  1  0  0  0
 17 18  1  0  0  0
 18 19  1  0  0  0
  9 10  1  0  0  0
M  END
> <minimizedAffinity>
-7.12317

> <CNNscore>
0.4642615914

> <CNNaffinity>
5.7811675072

> <CNN_VS>
2.6839740276

> <CNNaffinity_variance>
0.0435040519

$$$$



 19 18  0  0  0  0  0  0  0  0999 V2000
  -49.6881   58.0210   62.2453 C   0  0  0  0  0  0  0  0  0  0  0  0
  -51.0020   58.6988   61.8819 C   0  0  0  0  0  0  0  0  0  0  0  0
  -51.3922   59.7813   62.8740 C   0  0  0  0  0  0  0  0  0  0  0  0
  -50.2696   60.0056   63.8737 C   0  0  0  0  0  0  0  0  0  0  0  0
  -50.8329   59.9011   65.2795 C   0  0  0  0  0  0  0  0  0  0  0  0
  -50.2157   58.7443   66.0494 C   0  0  0  0  0  0  0  0  0  0  0  0
  -48.8044   59.1071   66.4397 C   0  0  0  0  0  0  0  0  0  0  0  0
  -47.8435   58.4591   65.9811 O   0  0  0  0  0  0  0  0  0  0  0  0
  -48.5724   60.0506   67.2251 O   0  0  0  0  0  0  0  0  0  0  0  0
  -49.2814   60.5496   67.5805 H   0  0  0  0  0  0  0  0  0  0  0  0
  -49.1896   57.3076   60.9970 C   0  0  0  0  0  0  0  0  0  0  0  0
  -49.9527   57.7349   59.7663 C   0  0  0  0  0  0  0  0  0  0  0  0
  -49.2902   58.5703   58.7521 C   0  0  0  0  0  0  0  0  0  0  0  0
  -47.9394   59.1642   59.0635 C   0  0  0  0  0  0  0  0  0  0  0  0
  -47.0495   59.1605   57.8254 C   0  0  0  0  0  0  0  0  0  0  0  0
  -46.2319   57.8705   57.7644 C   0  0  0  0  0  0  0  0  0  0  0  0
  -46.6530   56.9888   56.5896 C   0  0  0  0  0  0  0  0  0  0  0  0
  -47.2478   55.6587   57.0590 C   0  0  0  0  0  0  0  0  0  0  0  0
  -47.1624   55.4702   58.5714 C   0  0  0  0  0  0  0  0  0  0  0  0
  7  8  2  0  0  0
  7  6  1  0  0  0
  7  9  1  0  0  0
  6  5  1  0  0  0
  5  4  1  0  0  0
  4  3  1  0  0  0
  3  2  1  0  0  0
  2  1  1  0  0  0
  1 11  1  0  0  0
 11 12  1  0  0  0
 12 13  2  0  0  0
 13 14  1  0  0  0
 14 15  1  0  0  0
 15 16  1  0  0  0
 16 17  1  0  0  0
 17 18  1  0  0  0
 18 19  1  0  0  0
  9 10  1  0  0  0
M  END
> <minimizedAffinity>
-7.41311

> <CNNscore>
0.4270135462

> <CNNaffinity>
5.8036704063

> <CNN_VS>
2.4782459736

> <CNNaffinity_variance>
0.0284730233

$$$$



 19 18  0  0  0  0  0  0  0  0999 V2000
  -50.9585   57.3976   60.6402 C   0  0  0  0  0  0  0  0  0  0  0  0
  -50.2293   57.9334   61.8645 C   0  0  0  0  0  0  0  0  0  0  0  0
  -50.8960   59.1694   62.4442 C   0  0  0  0  0  0  0  0  0  0  0  0
  -49.9968   59.8086   63.4896 C   0  0  0  0  0  0  0  0  0  0  0  0
  -48.6079   59.2055   63.3808 C   0  0  0  0  0  0  0  0  0  0  0  0
  -47.5230   60.2391   63.6385 C   0  0  0  0  0  0  0  0  0  0  0  0
  -46.5770   59.7117   64.6884 C   0  0  0  0  0  0  0  0  0  0  0  0
  -46.5306   58.4897   64.9301 O   0  0  0  0  0  0  0  0  0  0  0  0
  -45.8323   60.4801   65.3334 O   0  0  0  0  0  0  0  0  0  0  0  0
  -45.8526   61.4019   65.1662 H   0  0  0  0  0  0  0  0  0  0  0  0
  -49.9441   57.3254   59.5082 C   0  0  0  0  0  0  0  0  0  0  0  0
  -48.9127   56.2494   59.7491 C   0  0  0  0  0  0  0  0  0  0  0  0
  -47.9225   55.9428   58.7047 C   0  0  0  0  0  0  0  0  0  0  0  0
  -48.0922   56.5520   57.3356 C   0  0  0  0  0  0  0  0  0  0  0  0
  -46.7983   57.2145   56.8753 C   0  0  0  0  0  0  0  0  0  0  0  0
  -46.2446   58.1181   57.9768 C   0  0  0  0  0  0  0  0  0  0  0  0
  -47.0707   59.3943   58.1301 C   0  0  0  0  0  0  0  0  0  0  0  0
  -47.1203   59.8707   59.5840 C   0  0  0  0  0  0  0  0  0  0  0  0
  -48.3668   60.6941   59.8975 C   0  0  0  0  0  0  0  0  0  0  0  0
  7  8  2  0  0  0
  7  6  1  0  0  0
  7  9  1  0  0  0
  6  5  1  0  0  0
  5  4  1  0  0  0
  4  3  1  0  0  0
  3  2  1  0  0  0
  2  1  1  0  0  0
  1 11  1  0  0  0
 11 12  1  0  0  0
 12 13  2  0  0  0
 13 14  1  0  0  0
 14 15  1  0  0  0
 15 16  1  0  0  0
 16 17  1  0  0  0
 17 18  1  0  0  0
 18 19  1  0  0  0
  9 10  1  0  0  0
M  END
> <minimizedAffinity>
-6.42509

> <CNNscore>
0.4266220927

> <CNNaffinity>
5.7231326103

> <CNN_VS>
2.4416148663

> <CNNaffinity_variance>
0.0599864647

$$$$



 19 18  0  0  0  0  0  0  0  0999 V2000
  -49.9150   60.0971   61.6562 C   0  0  0  0  0  0  0  0  0  0  0  0
  -50.9232   59.2913   62.4635 C   0  0  0  0  0  0  0  0  0  0  0  0
  -50.3080   58.6640   63.7029 C   0  0  0  0  0  0  0  0  0  0  0  0
  -50.3470   59.6462   64.8621 C   0  0  0  0  0  0  0  0  0  0  0  0
  -49.0569   59.5271   65.6532 C   0  0  0  0  0  0  0  0  0  0  0  0
  -48.6027   58.0813   65.7761 C   0  0  0  0  0  0  0  0  0  0  0  0
  -47.4802   57.9993   66.7804 C   0  0  0  0  0  0  0  0  0  0  0  0
  -46.8256   56.9453   66.9007 O   0  0  0  0  0  0  0  0  0  0  0  0
  -47.1897   58.9729   67.5074 O   0  0  0  0  0  0  0  0  0  0  0  0
  -47.6702   59.7738   67.4319 H   0  0  0  0  0  0  0  0  0  0  0  0
  -49.0912   59.1058   60.8472 C   0  0  0  0  0  0  0  0  0  0  0  0
  -49.7542   58.7684   59.5333 C   0  0  0  0  0  0  0  0  0  0  0  0
  -49.7729   57.3739   59.0639 C   0  0  0  0  0  0  0  0  0  0  0  0
  -48.9423   56.3468   59.7917 C   0  0  0  0  0  0  0  0  0  0  0  0
  -47.9416   55.6928   58.8454 C   0  0  0  0  0  0  0  0  0  0  0  0
  -48.0794   56.2790   57.4406 C   0  0  0  0  0  0  0  0  0  0  0  0
  -46.7262   56.6959   56.8663 C   0  0  0  0  0  0  0  0  0  0  0  0
  -46.0959   57.8402   57.6642 C   0  0  0  0  0  0  0  0  0  0  0  0
  -46.9106   59.1294   57.5991 C   0  0  0  0  0  0  0  0  0  0  0  0
  7  8  2  0  0  0
  7  6  1  0  0  0
  7  9  1  0  0  0
  6  5  1  0  0  0
  5  4  1  0  0  0
  4  3  1  0  0  0
  3  2  1  0  0  0
  2  1  1  0  0  0
  1 11  1  0  0  0
 11 12  1  0  0  0
 12 13  2  0  0  0
 13 14  1  0  0  0
 14 15  1  0  0  0
 15 16  1  0  0  0
 16 17  1  0  0  0
 17 18  1  0  0  0
 18 19  1  0  0  0
  9 10  1  0  0  0
M  END
> <minimizedAffinity>
-6.66258

> <CNNscore>
0.4127120376

> <CNNaffinity>
5.8351407051

> <CNN_VS>
2.4082329273

> <CNNaffinity_variance>
0.0790267140

$$$$
