


 19 18  0  0  0  0  0  0  0  0999 V2000
  -45.7730   57.1982   65.6851 C   0  0  0  0  0  0  0  0  0  0  0  0
  -44.3954   57.2036   65.0369 C   0  0  0  0  0  0  0  0  0  0  0  0
  -43.7908   58.5956   64.9669 C   0  0  0  0  0  0  0  0  0  0  0  0
  -42.7054   58.7493   66.0197 C   0  0  0  0  0  0  0  0  0  0  0  0
  -42.3812   60.2234   66.1824 C   0  0  0  0  0  0  0  0  0  0  0  0
  -41.5087   60.7371   65.0482 C   0  0  0  0  0  0  0  0  0  0  0  0
  -40.2007   61.2306   65.6150 C   0  0  0  0  0  0  0  0  0  0  0  0
  -39.2572   60.4355   65.7919 O   0  0  0  0  0  0  0  0  0  0  0  0
  -40.0395   62.4314   65.9198 O   0  0  0  0  0  0  0  0  0  0  0  0
  -40.7369   63.0444   65.7943 H   0  0  0  0  0  0  0  0  0  0  0  0
  -46.6234   58.2188   64.9429 C   0  0  0  0  0  0  0  0  0  0  0  0
  -47.3615   59.1296   65.8944 C   0  0  0  0  0  0  0  0  0  0  0  0
  -48.7797   59.4394   65.6533 C   0  0  0  0  0  0  0  0  0  0  0  0
  -49.4071   59.0215   64.3471 C   0  0  0  0  0  0  0  0  0  0  0  0
  -50.6462   59.8591   64.0509 C   0  0  0  0  0  0  0  0  0  0  0  0
  -51.0165   59.7531   62.5716 C   0  0  0  0  0  0  0  0  0  0  0  0
  -50.6485   58.3877   61.9929 C   0  0  0  0  0  0  0  0  0  0  0  0
  -49.8412   58.5154   60.6986 C   0  0  0  0  0  0  0  0  0  0  0  0
  -50.3390   57.5874   59.5936 C   0  0  0  0  0  0  0  0  0  0  0  0
  7  8  2  0  0  0
  7  6  1  0  0  0
  7  9  1  0  0  0
  6  5  1  0  0  0
  5  4  1  0  0  0
  4  3  1  0  0  0
  3  2  1  0  0  0
  2  1  1  0  0  0
  1 11  1  0  0  0
 11 12  1  0  0  0
 12 13  2  0  0  0
 13 14  1  0  0  0
 14 15  1  0  0  0
 15 16  1  0  0  0
 16 17  1  0  0  0
 17 18  1  0  0  0
 18 19  1  0  0  0
  9 10  1  0  0  0
M  END
> <minimizedAffinity>
-6.68166

> <CNNscore>
0.9008132815

> <CNNaffinity>
6.5522050858

> <CNN_VS>
5.9023132324

> <CNNaffinity_variance>
0.7105192542

$$$$



 19 18  0  0  0  0  0  0  0  0999 V2000
  -48.4796   57.7981   64.8122 C   0  0  0  0  0  0  0  0  0  0  0  0
  -48.0174   59.0917   65.4684 C   0  0  0  0  0  0  0  0  0  0  0  0
  -46.6886   58.9364   66.1884 C   0  0  0  0  0  0  0  0  0  0  0  0
  -45.5642   58.7594   65.1812 C   0  0  0  0  0  0  0  0  0  0  0  0
  -44.4172   59.6807   65.5554 C   0  0  0  0  0  0  0  0  0  0  0  0
  -43.1290   58.9088   65.7934 C   0  0  0  0  0  0  0  0  0  0  0  0
  -42.1652   59.7798   66.5603 C   0  0  0  0  0  0  0  0  0  0  0  0
  -40.9561   59.7900   66.2575 O   0  0  0  0  0  0  0  0  0  0  0  0
  -42.5534   60.4969   67.5068 O   0  0  0  0  0  0  0  0  0  0  0  0
  -43.4584   60.5029   67.7495 H   0  0  0  0  0  0  0  0  0  0  0  0
  -48.6486   58.0826   63.3268 C   0  0  0  0  0  0  0  0  0  0  0  0
  -50.1041   58.1923   62.9405 C   0  0  0  0  0  0  0  0  0  0  0  0
  -50.5215   57.8539   61.5705 C   0  0  0  0  0  0  0  0  0  0  0  0
  -49.4637   57.6169   60.5220 C   0  0  0  0  0  0  0  0  0  0  0  0
  -49.3729   56.1356   60.1720 C   0  0  0  0  0  0  0  0  0  0  0  0
  -48.2767   55.9030   59.1325 C   0  0  0  0  0  0  0  0  0  0  0  0
  -48.0482   57.1397   58.2648 C   0  0  0  0  0  0  0  0  0  0  0  0
  -47.2821   56.8037   56.9828 C   0  0  0  0  0  0  0  0  0  0  0  0
  -47.3251   55.3176   56.6370 C   0  0  0  0  0  0  0  0  0  0  0  0
  7  8  2  0  0  0
  7  6  1  0  0  0
  7  9  1  0  0  0
  6  5  1  0  0  0
  5  4  1  0  0  0
  4  3  1  0  0  0
  3  2  1  0  0  0
  2  1  1  0  0  0
  1 11  1  0  0  0
 11 12  1  0  0  0
 12 13  2  0  0  0
 13 14  1  0  0  0
 14 15  1  0  0  0
 15 16  1  0  0  0
 16 17  1  0  0  0
 17 18  1  0  0  0
 18 19  1  0  0  0
  9 10  1  0  0  0
M  END
> <minimizedAffinity>
-6.90931

> <CNNscore>
0.8624686599

> <CNNaffinity>
6.6061949730

> <CNN_VS>
5.6976361275

> <CNNaffinity_variance>
0.8023395538

$$$$



 19 18  0  0  0  0  0  0  0  0999 V2000
  -46.7930   60.0770   65.3026 C   0  0  0  0  0  0  0  0  0  0  0  0
  -46.2636   58.6507   65.2451 C   0  0  0  0  0  0  0  0  0  0  0  0
  -44.7987   58.5894   64.8470 C   0  0  0  0  0  0  0  0  0  0  0  0
  -44.1176   59.9143   65.1483 C   0  0  0  0  0  0  0  0  0  0  0  0
  -42.6796   59.8506   64.6660 C   0  0  0  0  0  0  0  0  0  0  0  0
  -41.7071   60.3408   65.7270 C   0  0  0  0  0  0  0  0  0  0  0  0
  -40.9373   61.5196   65.1853 C   0  0  0  0  0  0  0  0  0  0  0  0
  -41.0703   61.8577   63.9929 O   0  0  0  0  0  0  0  0  0  0  0  0
  -40.1559   62.1709   65.9106 O   0  0  0  0  0  0  0  0  0  0  0  0
  -40.0424   61.9323   66.8096 H   0  0  0  0  0  0  0  0  0  0  0  0
  -48.0369   60.1308   64.4276 C   0  0  0  0  0  0  0  0  0  0  0  0
  -49.1852   59.3655   65.0404 C   0  0  0  0  0  0  0  0  0  0  0  0
  -49.8338   58.2890   64.2749 C   0  0  0  0  0  0  0  0  0  0  0  0
  -49.4867   58.1176   62.8174 C   0  0  0  0  0  0  0  0  0  0  0  0
  -50.7176   58.3237   61.9414 C   0  0  0  0  0  0  0  0  0  0  0  0
  -50.7750   57.2567   60.8484 C   0  0  0  0  0  0  0  0  0  0  0  0
  -50.2651   57.7896   59.5103 C   0  0  0  0  0  0  0  0  0  0  0  0
  -49.1197   56.9384   58.9563 C   0  0  0  0  0  0  0  0  0  0  0  0
  -48.8154   55.7170   59.8198 C   0  0  0  0  0  0  0  0  0  0  0  0
  7  8  2  0  0  0
  7  6  1  0  0  0
  7  9  1  0  0  0
  6  5  1  0  0  0
  5  4  1  0  0  0
  4  3  1  0  0  0
  3  2  1  0  0  0
  2  1  1  0  0  0
  1 11  1  0  0  0
 11 12  1  0  0  0
 12 13  2  0  0  0
 13 14  1  0  0  0
 14 15  1  0  0  0
 15 16  1  0  0  0
 16 17  1  0  0  0
 17 18  1  0  0  0
 18 19  1  0  0  0
  9 10  1  0  0  0
M  END
> <minimizedAffinity>
-6.83293

> <CNNscore>
0.8449475765

> <CNNaffinity>
6.5335340500

> <CNN_VS>
5.5204939842

> <CNNaffinity_variance>
0.7972134352

$$$$



 19 18  0  0  0  0  0  0  0  0999 V2000
  -50.9268   59.3371   62.4102 C   0  0  0  0  0  0  0  0  0  0  0  0
  -50.3632   58.0579   61.8074 C   0  0  0  0  0  0  0  0  0  0  0  0
  -49.8252   58.2649   60.4017 C   0  0  0  0  0  0  0  0  0  0  0  0
  -49.5112   56.9245   59.7578 C   0  0  0  0  0  0  0  0  0  0  0  0
  -48.4987   57.1361   58.6467 C   0  0  0  0  0  0  0  0  0  0  0  0
  -47.7655   55.8500   58.3000 C   0  0  0  0  0  0  0  0  0  0  0  0
  -47.8174   55.6382   56.8074 C   0  0  0  0  0  0  0  0  0  0  0  0
  -48.8117   56.0156   56.1573 O   0  0  0  0  0  0  0  0  0  0  0  0
  -46.8780   55.0826   56.1994 O   0  0  0  0  0  0  0  0  0  0  0  0
  -46.1220   54.7919   56.6705 H   0  0  0  0  0  0  0  0  0  0  0  0
  -50.3507   59.4654   63.8129 C   0  0  0  0  0  0  0  0  0  0  0  0
  -49.4044   60.6367   63.9239 C   0  0  0  0  0  0  0  0  0  0  0  0
  -48.0412   60.4256   64.4362 C   0  0  0  0  0  0  0  0  0  0  0  0
  -47.6876   59.0917   65.0444 C   0  0  0  0  0  0  0  0  0  0  0  0
  -46.5505   59.2408   66.0492 C   0  0  0  0  0  0  0  0  0  0  0  0
  -45.2014   59.2086   65.3314 C   0  0  0  0  0  0  0  0  0  0  0  0
  -45.0026   57.9054   64.5589 C   0  0  0  0  0  0  0  0  0  0  0  0
  -44.0968   56.9280   65.3124 C   0  0  0  0  0  0  0  0  0  0  0  0
  -42.7855   57.5632   65.7675 C   0  0  0  0  0  0  0  0  0  0  0  0
  7  8  2  0  0  0
  7  6  1  0  0  0
  7  9  1  0  0  0
  6  5  1  0  0  0
  5  4  1  0  0  0
  4  3  1  0  0  0
  3  2  1  0  0  0
  2  1  1  0  0  0
  1 11  1  0  0  0
 11 12  1  0  0  0
 12 13  2  0  0  0
 13 14  1  0  0  0
 14 15  1  0  0  0
 15 16  1  0  0  0
 16 17  1  0  0  0
 17 18  1  0  0  0
 18 19  1  0  0  0
  9 10  1  0  0  0
M  END
> <minimizedAffinity>
-7.15938

> <CNNscore>
0.8090435863

> <CNNaffinity>
6.6117124557

> <CNN_VS>
5.3491635323

> <CNNaffinity_variance>
0.6680892110

$$$$



 19 18  0  0  0  0  0  0  0  0999 V2000
  -43.6322   58.8769   64.9582 C   0  0  0  0  0  0  0  0  0  0  0  0
  -42.6305   58.1019   65.8031 C   0  0  0  0  0  0  0  0  0  0  0  0
  -41.7179   59.0134   66.6058 C   0  0  0  0  0  0  0  0  0  0  0  0
  -42.1184   60.4657   66.4044 C   0  0  0  0  0  0  0  0  0  0  0  0
  -40.9044   61.2530   65.9453 C   0  0  0  0  0  0  0  0  0  0  0  0
  -39.7266   60.3429   65.6357 C   0  0  0  0  0  0  0  0  0  0  0  0
  -38.5302   61.1879   65.2748 C   0  0  0  0  0  0  0  0  0  0  0  0
  -37.6538   60.7362   64.5121 O   0  0  0  0  0  0  0  0  0  0  0  0
  -38.3920   62.3426   65.7313 O   0  0  0  0  0  0  0  0  0  0  0  0
  -39.0400   62.6998   66.3061 H   0  0  0  0  0  0  0  0  0  0  0  0
  -44.6816   57.8838   64.4807 C   0  0  0  0  0  0  0  0  0  0  0  0
  -45.5331   57.3784   65.6206 C   0  0  0  0  0  0  0  0  0  0  0  0
  -46.9670   57.7066   65.6596 C   0  0  0  0  0  0  0  0  0  0  0  0
  -47.5117   58.7192   64.6837 C   0  0  0  0  0  0  0  0  0  0  0  0
  -47.3544   60.1341   65.2298 C   0  0  0  0  0  0  0  0  0  0  0  0
  -48.1594   61.1209   64.3845 C   0  0  0  0  0  0  0  0  0  0  0  0
  -49.0952   60.4022   63.4137 C   0  0  0  0  0  0  0  0  0  0  0  0
  -50.5483   60.4318   63.8945 C   0  0  0  0  0  0  0  0  0  0  0  0
  -51.5328   59.9288   62.8421 C   0  0  0  0  0  0  0  0  0  0  0  0
  7  8  2  0  0  0
  7  6  1  0  0  0
  7  9  1  0  0  0
  6  5  1  0  0  0
  5  4  1  0  0  0
  4  3  1  0  0  0
  3  2  1  0  0  0
  2  1  1  0  0  0
  1 11  1  0  0  0
 11 12  1  0  0  0
 12 13  2  0  0  0
 13 14  1  0  0  0
 14 15  1  0  0  0
 15 16  1  0  0  0
 16 17  1  0  0  0
 17 18  1  0  0  0
 18 19  1  0  0  0
  9 10  1  0  0  0
M  END
> <minimizedAffinity>
-6.66199

> <CNNscore>
0.7120403647

> <CNNaffinity>
5.9648308754

> <CNN_VS>
4.2472004890

> <CNNaffinity_variance>
0.2865392566

$$$$



 19 18  0  0  0  0  0  0  0  0999 V2000
  -45.3119   59.7506   65.4842 C   0  0  0  0  0  0  0  0  0  0  0  0
  -44.3676   58.7372   64.8523 C   0  0  0  0  0  0  0  0  0  0  0  0
  -42.9506   59.2679   64.7167 C   0  0  0  0  0  0  0  0  0  0  0  0
  -42.0454   58.6157   65.7488 C   0  0  0  0  0  0  0  0  0  0  0  0
  -41.5792   59.6723   66.7340 C   0  0  0  0  0  0  0  0  0  0  0  0
  -41.3612   61.0164   66.0576 C   0  0  0  0  0  0  0  0  0  0  0  0
  -39.8864   61.2102   65.8065 C   0  0  0  0  0  0  0  0  0  0  0  0
  -39.1566   60.2252   65.5810 O   0  0  0  0  0  0  0  0  0  0  0  0
  -39.3710   62.3482   65.8238 O   0  0  0  0  0  0  0  0  0  0  0  0
  -39.9030   63.1010   65.9915 H   0  0  0  0  0  0  0  0  0  0  0  0
  -46.1632   59.0008   66.4984 C   0  0  0  0  0  0  0  0  0  0  0  0
  -46.7459   57.7365   65.9138 C   0  0  0  0  0  0  0  0  0  0  0  0
  -48.0734   57.7718   65.2799 C   0  0  0  0  0  0  0  0  0  0  0  0
  -48.9174   59.0137   65.4202 C   0  0  0  0  0  0  0  0  0  0  0  0
  -50.3044   58.7938   64.8263 C   0  0  0  0  0  0  0  0  0  0  0  0
  -50.8642   60.1095   64.2859 C   0  0  0  0  0  0  0  0  0  0  0  0
  -51.5497   59.9196   62.9336 C   0  0  0  0  0  0  0  0  0  0  0  0
  -50.5544   59.5230   61.8402 C   0  0  0  0  0  0  0  0  0  0  0  0
  -49.4125   60.5239   61.6845 C   0  0  0  0  0  0  0  0  0  0  0  0
  7  8  2  0  0  0
  7  6  1  0  0  0
  7  9  1  0  0  0
  6  5  1  0  0  0
  5  4  1  0  0  0
  4  3  1  0  0  0
  3  2  1  0  0  0
  2  1  1  0  0  0
  1 11  1  0  0  0
 11 12  1  0  0  0
 12 13  2  0  0  0
 13 14  1  0  0  0
 14 15  1  0  0  0
 15 16  1  0  0  0
 16 17  1  0  0  0
 17 18  1  0  0  0
 18 19  1  0  0  0
  9 10  1  0  0  0
M  END
> <minimizedAffinity>
-6.77243

> <CNNscore>
0.7073628306

> <CNNaffinity>
6.0167975426

> <CNN_VS>
4.2560591698

> <CNNaffinity_variance>
0.1495129764

$$$$



 19 18  0  0  0  0  0  0  0  0999 V2000
  -46.7581   60.2467   65.2877 C   0  0  0  0  0  0  0  0  0  0  0  0
  -45.8495   59.1821   65.8866 C   0  0  0  0  0  0  0  0  0  0  0  0
  -44.7280   58.7774   64.9449 C   0  0  0  0  0  0  0  0  0  0  0  0
  -43.5871   59.7781   65.0278 C   0  0  0  0  0  0  0  0  0  0  0  0
  -42.7255   59.4451   66.2324 C   0  0  0  0  0  0  0  0  0  0  0  0
  -42.1437   60.6957   66.8721 C   0  0  0  0  0  0  0  0  0  0  0  0
  -40.8993   61.1016   66.1223 C   0  0  0  0  0  0  0  0  0  0  0  0
  -40.0813   60.2358   65.7548 O   0  0  0  0  0  0  0  0  0  0  0  0
  -40.6630   62.3003   65.8612 O   0  0  0  0  0  0  0  0  0  0  0  0
  -41.2658   62.9658   66.1291 H   0  0  0  0  0  0  0  0  0  0  0  0
  -48.1359   60.0626   65.9071 C   0  0  0  0  0  0  0  0  0  0  0  0
  -48.7291   58.7178   65.5620 C   0  0  0  0  0  0  0  0  0  0  0  0
  -49.9534   58.6489   64.7485 C   0  0  0  0  0  0  0  0  0  0  0  0
  -50.7122   59.9202   64.4613 C   0  0  0  0  0  0  0  0  0  0  0  0
  -51.0602   60.0182   62.9800 C   0  0  0  0  0  0  0  0  0  0  0  0
  -49.7995   60.2777   62.1555 C   0  0  0  0  0  0  0  0  0  0  0  0
  -49.7543   59.4056   60.9016 C   0  0  0  0  0  0  0  0  0  0  0  0
  -49.8066   57.9140   61.2419 C   0  0  0  0  0  0  0  0  0  0  0  0
  -50.9936   57.1995   60.6011 C   0  0  0  0  0  0  0  0  0  0  0  0
  7  8  2  0  0  0
  7  6  1  0  0  0
  7  9  1  0  0  0
  6  5  1  0  0  0
  5  4  1  0  0  0
  4  3  1  0  0  0
  3  2  1  0  0  0
  2  1  1  0  0  0
  1 11  1  0  0  0
 11 12  1  0  0  0
 12 13  2  0  0  0
 13 14  1  0  0  0
 14 15  1  0  0  0
 15 16  1  0  0  0
 16 17  1  0  0  0
 17 18  1  0  0  0
 18 19  1  0  0  0
  9 10  1  0  0  0
M  END
> <minimizedAffinity>
-7.01365

> <CNNscore>
0.7016950846

> <CNNaffinity>
6.0002427101

> <CNN_VS>
4.2103409767

> <CNNaffinity_variance>
0.3454248309

$$$$



 19 18  0  0  0  0  0  0  0  0999 V2000
  -49.6638   58.4828   65.3599 C   0  0  0  0  0  0  0  0  0  0  0  0
  -48.2879   57.8971   65.0740 C   0  0  0  0  0  0  0  0  0  0  0  0
  -47.1724   58.6739   65.7528 C   0  0  0  0  0  0  0  0  0  0  0  0
  -45.9156   58.6408   64.8987 C   0  0  0  0  0  0  0  0  0  0  0  0
  -44.7797   59.2913   65.6674 C   0  0  0  0  0  0  0  0  0  0  0  0
  -43.4214   58.8317   65.1619 C   0  0  0  0  0  0  0  0  0  0  0  0
  -42.5112   60.0278   65.0327 C   0  0  0  0  0  0  0  0  0  0  0  0
  -42.1153   60.6243   66.0531 O   0  0  0  0  0  0  0  0  0  0  0  0
  -42.1435   60.4433   63.9134 O   0  0  0  0  0  0  0  0  0  0  0  0
  -42.4305   60.0083   63.1347 H   0  0  0  0  0  0  0  0  0  0  0  0
  -49.7013   59.8695   64.7344 C   0  0  0  0  0  0  0  0  0  0  0  0
  -51.0561   60.1808   64.1451 C   0  0  0  0  0  0  0  0  0  0  0  0
  -51.3496   59.8015   62.7539 C   0  0  0  0  0  0  0  0  0  0  0  0
  -50.2249   59.3100   61.8777 C   0  0  0  0  0  0  0  0  0  0  0  0
  -50.2156   57.7865   61.8151 C   0  0  0  0  0  0  0  0  0  0  0  0
  -50.9491   57.3030   60.5642 C   0  0  0  0  0  0  0  0  0  0  0  0
  -50.1019   57.4852   59.3057 C   0  0  0  0  0  0  0  0  0  0  0  0
  -48.8796   56.5636   59.3025 C   0  0  0  0  0  0  0  0  0  0  0  0
  -47.8337   56.9673   58.2665 C   0  0  0  0  0  0  0  0  0  0  0  0
  7  8  2  0  0  0
  7  6  1  0  0  0
  7  9  1  0  0  0
  6  5  1  0  0  0
  5  4  1  0  0  0
  4  3  1  0  0  0
  3  2  1  0  0  0
  2  1  1  0  0  0
  1 11  1  0  0  0
 11 12  1  0  0  0
 12 13  2  0  0  0
 13 14  1  0  0  0
 14 15  1  0  0  0
 15 16  1  0  0  0
 16 17  1  0  0  0
 17 18  1  0  0  0
 18 19  1  0  0  0
  9 10  1  0  0  0
M  END
> <minimizedAffinity>
-6.90471

> <CNNscore>
0.6991642118

> <CNNaffinity>
6.3855767250

> <CNN_VS>
4.4645667076

> <CNNaffinity_variance>
0.5812028646

$$$$



 19 18  0  0  0  0  0  0  0  0999 V2000
  -44.7802   58.1424   64.3791 C   0  0  0  0  0  0  0  0  0  0  0  0
  -44.0512   59.2509   65.1258 C   0  0  0  0  0  0  0  0  0  0  0  0
  -42.5416   59.1519   64.9854 C   0  0  0  0  0  0  0  0  0  0  0  0
  -41.9390   60.5366   64.8144 C   0  0  0  0  0  0  0  0  0  0  0  0
  -40.9423   60.5028   63.6699 C   0  0  0  0  0  0  0  0  0  0  0  0
  -41.3554   61.4270   62.5354 C   0  0  0  0  0  0  0  0  0  0  0  0
  -40.5585   61.0824   61.3018 C   0  0  0  0  0  0  0  0  0  0  0  0
  -39.4255   60.5745   61.4119 O   0  0  0  0  0  0  0  0  0  0  0  0
  -41.0103   61.3005   60.1576 O   0  0  0  0  0  0  0  0  0  0  0  0
  -41.8600   61.6817   60.0542 H   0  0  0  0  0  0  0  0  0  0  0  0
  -46.1484   57.9879   65.0271 C   0  0  0  0  0  0  0  0  0  0  0  0
  -46.9040   59.2947   65.0567 C   0  0  0  0  0  0  0  0  0  0  0  0
  -48.1975   59.4039   64.3635 C   0  0  0  0  0  0  0  0  0  0  0  0
  -48.6375   58.2820   63.4569 C   0  0  0  0  0  0  0  0  0  0  0  0
  -50.0977   58.4551   63.0533 C   0  0  0  0  0  0  0  0  0  0  0  0
  -50.3930   57.6633   61.7797 C   0  0  0  0  0  0  0  0  0  0  0  0
  -49.8238   58.3524   60.5404 C   0  0  0  0  0  0  0  0  0  0  0  0
  -49.7451   57.4007   59.3440 C   0  0  0  0  0  0  0  0  0  0  0  0
  -49.0767   56.0714   59.6848 C   0  0  0  0  0  0  0  0  0  0  0  0
  7  8  2  0  0  0
  7  6  1  0  0  0
  7  9  1  0  0  0
  6  5  1  0  0  0
  5  4  1  0  0  0
  4  3  1  0  0  0
  3  2  1  0  0  0
  2  1  1  0  0  0
  1 11  1  0  0  0
 11 12  1  0  0  0
 12 13  2  0  0  0
 13 14  1  0  0  0
 14 15  1  0  0  0
 15 16  1  0  0  0
 16 17  1  0  0  0
 17 18  1  0  0  0
 18 19  1  0  0  0
  9 10  1  0  0  0
M  END
> <minimizedAffinity>
-6.70047

> <CNNscore>
0.6924331784

> <CNNaffinity>
6.2349243164

> <CNN_VS>
4.3172683716

> <CNNaffinity_variance>
0.4429384172

$$$$
