


 19 18  0  0  0  0  0  0  0  0999 V2000
  -43.6866   57.3779   66.2750 C   0  0  0  0  0  0  0  0  0  0  0  0
  -43.6473   58.8991   66.3208 C   0  0  0  0  0  0  0  0  0  0  0  0
  -42.4616   59.4736   65.5642 C   0  0  0  0  0  0  0  0  0  0  0  0
  -41.1616   59.0571   66.2325 C   0  0  0  0  0  0  0  0  0  0  0  0
  -40.2181   58.5090   65.1771 C   0  0  0  0  0  0  0  0  0  0  0  0
  -38.7815   58.9394   65.4274 C   0  0  0  0  0  0  0  0  0  0  0  0
  -38.6944   60.4431   65.3458 C   0  0  0  0  0  0  0  0  0  0  0  0
  -38.3491   61.1038   66.3448 O   0  0  0  0  0  0  0  0  0  0  0  0
  -38.9679   61.0509   64.2891 O   0  0  0  0  0  0  0  0  0  0  0  0
  -39.2295   60.5719   63.5274 H   0  0  0  0  0  0  0  0  0  0  0  0
  -45.1385   56.9714   66.0687 C   0  0  0  0  0  0  0  0  0  0  0  0
  -45.7056   57.5499   64.7945 C   0  0  0  0  0  0  0  0  0  0  0  0
  -47.0212   58.2088   64.8162 C   0  0  0  0  0  0  0  0  0  0  0  0
  -47.8722   58.1006   66.0565 C   0  0  0  0  0  0  0  0  0  0  0  0
  -49.3507   58.0249   65.6919 C   0  0  0  0  0  0  0  0  0  0  0  0
  -49.5838   58.6103   64.2993 C   0  0  0  0  0  0  0  0  0  0  0  0
  -50.9170   59.3517   64.2132 C   0  0  0  0  0  0  0  0  0  0  0  0
  -51.4607   59.3839   62.7825 C   0  0  0  0  0  0  0  0  0  0  0  0
  -51.2425   58.0714   62.0342 C   0  0  0  0  0  0  0  0  0  0  0  0
  7  8  2  0  0  0
  7  6  1  0  0  0
  7  9  1  0  0  0
  6  5  1  0  0  0
  5  4  1  0  0  0
  4  3  1  0  0  0
  3  2  1  0  0  0
  2  1  1  0  0  0
  1 11  1  0  0  0
 11 12  1  0  0  0
 12 13  2  0  0  0
 13 14  1  0  0  0
 14 15  1  0  0  0
 15 16  1  0  0  0
 16 17  1  0  0  0
 17 18  1  0  0  0
 18 19  1  0  0  0
  9 10  1  0  0  0
M  END
> <minimizedAffinity>
-6.74078

> <CNNscore>
0.8897118568

> <CNNaffinity>
6.4020109177

> <CNN_VS>
5.6959447861

> <CNNaffinity_variance>
0.2611942291

$$$$



 19 18  0  0  0  0  0  0  0  0999 V2000
  -45.1290   59.3176   65.3707 C   0  0  0  0  0  0  0  0  0  0  0  0
  -44.6507   58.8894   66.7511 C   0  0  0  0  0  0  0  0  0  0  0  0
  -43.1362   58.8999   66.8714 C   0  0  0  0  0  0  0  0  0  0  0  0
  -42.5310   57.8397   65.9660 C   0  0  0  0  0  0  0  0  0  0  0  0
  -41.1290   58.2687   65.5728 C   0  0  0  0  0  0  0  0  0  0  0  0
  -40.8713   59.7288   65.9093 C   0  0  0  0  0  0  0  0  0  0  0  0
  -39.4256   60.0537   65.6265 C   0  0  0  0  0  0  0  0  0  0  0  0
  -38.8019   59.4185   64.7540 O   0  0  0  0  0  0  0  0  0  0  0  0
  -38.8289   60.9524   66.2567 O   0  0  0  0  0  0  0  0  0  0  0  0
  -39.2806   61.4410   66.9164 H   0  0  0  0  0  0  0  0  0  0  0  0
  -46.0169   58.2032   64.8365 C   0  0  0  0  0  0  0  0  0  0  0  0
  -46.8077   57.5409   65.9391 C   0  0  0  0  0  0  0  0  0  0  0  0
  -48.2639   57.3834   65.7974 C   0  0  0  0  0  0  0  0  0  0  0  0
  -48.9667   58.0792   64.6589 C   0  0  0  0  0  0  0  0  0  0  0  0
  -50.1264   58.9236   65.1757 C   0  0  0  0  0  0  0  0  0  0  0  0
  -51.0125   59.3742   64.0146 C   0  0  0  0  0  0  0  0  0  0  0  0
  -50.4534   58.9202   62.6670 C   0  0  0  0  0  0  0  0  0  0  0  0
  -51.4586   58.0653   61.8911 C   0  0  0  0  0  0  0  0  0  0  0  0
  -50.8245   57.3170   60.7215 C   0  0  0  0  0  0  0  0  0  0  0  0
  7  8  2  0  0  0
  7  6  1  0  0  0
  7  9  1  0  0  0
  6  5  1  0  0  0
  5  4  1  0  0  0
  4  3  1  0  0  0
  3  2  1  0  0  0
  2  1  1  0  0  0
  1 11  1  0  0  0
 11 12  1  0  0  0
 12 13  2  0  0  0
 13 14  1  0  0  0
 14 15  1  0  0  0
 15 16  1  0  0  0
 16 17  1  0  0  0
 17 18  1  0  0  0
 18 19  1  0  0  0
  9 10  1  0  0  0
M  END
> <minimizedAffinity>
-6.64605

> <CNNscore>
0.8310164213

> <CNNaffinity>
6.3664832115

> <CNN_VS>
5.2906522751

> <CNNaffinity_variance>
0.2870858312

$$$$



 19 18  0  0  0  0  0  0  0  0999 V2000
  -46.3608   57.9583   65.0266 C   0  0  0  0  0  0  0  0  0  0  0  0
  -45.7603   59.3186   65.3533 C   0  0  0  0  0  0  0  0  0  0  0  0
  -44.2537   59.2598   65.5404 C   0  0  0  0  0  0  0  0  0  0  0  0
  -43.9143   59.0962   67.0128 C   0  0  0  0  0  0  0  0  0  0  0  0
  -42.4056   59.1299   67.1779 C   0  0  0  0  0  0  0  0  0  0  0  0
  -41.6888   58.8414   65.8685 C   0  0  0  0  0  0  0  0  0  0  0  0
  -40.6753   59.9282   65.6096 C   0  0  0  0  0  0  0  0  0  0  0  0
  -40.9669   60.8920   64.8750 O   0  0  0  0  0  0  0  0  0  0  0  0
  -39.5342   59.8831   66.1165 O   0  0  0  0  0  0  0  0  0  0  0  0
  -39.2961   59.1667   66.6715 H   0  0  0  0  0  0  0  0  0  0  0  0
  -47.8627   58.1534   64.8785 C   0  0  0  0  0  0  0  0  0  0  0  0
  -48.3991   59.1475   65.8803 C   0  0  0  0  0  0  0  0  0  0  0  0
  -49.8444   59.4186   65.9351 C   0  0  0  0  0  0  0  0  0  0  0  0
  -50.7330   58.8667   64.8487 C   0  0  0  0  0  0  0  0  0  0  0  0
  -51.2888   59.9916   63.9825 C   0  0  0  0  0  0  0  0  0  0  0  0
  -51.4982   59.5029   62.5494 C   0  0  0  0  0  0  0  0  0  0  0  0
  -50.8547   58.1366   62.3179 C   0  0  0  0  0  0  0  0  0  0  0  0
  -51.3498   57.4845   61.0244 C   0  0  0  0  0  0  0  0  0  0  0  0
  -50.4448   57.7727   59.8295 C   0  0  0  0  0  0  0  0  0  0  0  0
  7  8  2  0  0  0
  7  6  1  0  0  0
  7  9  1  0  0  0
  6  5  1  0  0  0
  5  4  1  0  0  0
  4  3  1  0  0  0
  3  2  1  0  0  0
  2  1  1  0  0  0
  1 11  1  0  0  0
 11 12  1  0  0  0
 12 13  2  0  0  0
 13 14  1  0  0  0
 14 15  1  0  0  0
 15 16  1  0  0  0
 16 17  1  0  0  0
 17 18  1  0  0  0
 18 19  1  0  0  0
  9 10  1  0  0  0
M  END
> <minimizedAffinity>
-7.14118

> <CNNscore>
0.8174642920

> <CNNaffinity>
6.2493691444

> <CNN_VS>
5.1086359024

> <CNNaffinity_variance>
0.3088788986

$$$$



 19 18  0  0  0  0  0  0  0  0999 V2000
  -51.3935   59.5319   62.4341 C   0  0  0  0  0  0  0  0  0  0  0  0
  -51.2904   58.0264   62.2322 C   0  0  0  0  0  0  0  0  0  0  0  0
  -51.0076   57.6511   60.7874 C   0  0  0  0  0  0  0  0  0  0  0  0
  -49.5671   57.9808   60.4324 C   0  0  0  0  0  0  0  0  0  0  0  0
  -48.9725   56.8202   59.6552 C   0  0  0  0  0  0  0  0  0  0  0  0
  -48.2738   57.2890   58.3888 C   0  0  0  0  0  0  0  0  0  0  0  0
  -47.9445   56.0910   57.5334 C   0  0  0  0  0  0  0  0  0  0  0  0
  -47.9695   54.9461   58.0258 O   0  0  0  0  0  0  0  0  0  0  0  0
  -47.6389   56.2201   56.3289 O   0  0  0  0  0  0  0  0  0  0  0  0
  -47.6146   57.0724   55.9405 H   0  0  0  0  0  0  0  0  0  0  0  0
  -50.6264   59.8690   63.7044 C   0  0  0  0  0  0  0  0  0  0  0  0
  -50.5888   58.7018   64.6614 C   0  0  0  0  0  0  0  0  0  0  0  0
  -49.3087   58.2926   65.2609 C   0  0  0  0  0  0  0  0  0  0  0  0
  -48.0308   58.9026   64.7422 C   0  0  0  0  0  0  0  0  0  0  0  0
  -47.1405   59.3528   65.8953 C   0  0  0  0  0  0  0  0  0  0  0  0
  -45.6710   59.3147   65.4764 C   0  0  0  0  0  0  0  0  0  0  0  0
  -45.3532   58.0764   64.6396 C   0  0  0  0  0  0  0  0  0  0  0  0
  -45.0859   56.8494   65.5151 C   0  0  0  0  0  0  0  0  0  0  0  0
  -43.6769   56.8336   66.1020 C   0  0  0  0  0  0  0  0  0  0  0  0
  7  8  2  0  0  0
  7  6  1  0  0  0
  7  9  1  0  0  0
  6  5  1  0  0  0
  5  4  1  0  0  0
  4  3  1  0  0  0
  3  2  1  0  0  0
  2  1  1  0  0  0
  1 11  1  0  0  0
 11 12  1  0  0  0
 12 13  2  0  0  0
 13 14  1  0  0  0
 14 15  1  0  0  0
 15 16  1  0  0  0
 16 17  1  0  0  0
 17 18  1  0  0  0
 18 19  1  0  0  0
  9 10  1  0  0  0
M  END
> <minimizedAffinity>
-7.46923

> <CNNscore>
0.8165784478

> <CNNaffinity>
6.5465531349

> <CNN_VS>
5.3457741737

> <CNNaffinity_variance>
0.4143728316

$$$$



 19 18  0  0  0  0  0  0  0  0999 V2000
  -51.4142   58.6220   62.4362 C   0  0  0  0  0  0  0  0  0  0  0  0
  -50.3481   58.5418   61.3524 C   0  0  0  0  0  0  0  0  0  0  0  0
  -50.4939   57.3042   60.4833 C   0  0  0  0  0  0  0  0  0  0  0  0
  -49.9871   57.5873   59.0786 C   0  0  0  0  0  0  0  0  0  0  0  0
  -48.4734   57.4735   59.0681 C   0  0  0  0  0  0  0  0  0  0  0  0
  -47.9529   57.0049   57.7185 C   0  0  0  0  0  0  0  0  0  0  0  0
  -47.6195   55.5360   57.8001 C   0  0  0  0  0  0  0  0  0  0  0  0
  -47.1682   54.9417   56.8016 O   0  0  0  0  0  0  0  0  0  0  0  0
  -47.7912   54.8910   58.8562 O   0  0  0  0  0  0  0  0  0  0  0  0
  -48.1294   55.3200   59.6174 H   0  0  0  0  0  0  0  0  0  0  0  0
  -50.6931   58.6392   63.7762 C   0  0  0  0  0  0  0  0  0  0  0  0
  -49.2302   58.9784   63.6197 C   0  0  0  0  0  0  0  0  0  0  0  0
  -48.2585   58.4852   64.6087 C   0  0  0  0  0  0  0  0  0  0  0  0
  -48.7667   57.8392   65.8731 C   0  0  0  0  0  0  0  0  0  0  0  0
  -47.9565   56.5908   66.2048 C   0  0  0  0  0  0  0  0  0  0  0  0
  -46.7830   56.9475   67.1170 C   0  0  0  0  0  0  0  0  0  0  0  0
  -45.4692   57.0324   66.3415 C   0  0  0  0  0  0  0  0  0  0  0  0
  -44.7127   58.3291   66.6411 C   0  0  0  0  0  0  0  0  0  0  0  0
  -44.7988   59.3437   65.5040 C   0  0  0  0  0  0  0  0  0  0  0  0
  7  8  2  0  0  0
  7  6  1  0  0  0
  7  9  1  0  0  0
  6  5  1  0  0  0
  5  4  1  0  0  0
  4  3  1  0  0  0
  3  2  1  0  0  0
  2  1  1  0  0  0
  1 11  1  0  0  0
 11 12  1  0  0  0
 12 13  2  0  0  0
 13 14  1  0  0  0
 14 15  1  0  0  0
 15 16  1  0  0  0
 16 17  1  0  0  0
 17 18  1  0  0  0
 18 19  1  0  0  0
  9 10  1  0  0  0
M  END
> <minimizedAffinity>
-7.39568

> <CNNscore>
0.7753608227

> <CNNaffinity>
6.6024770737

> <CNN_VS>
5.1193022728

> <CNNaffinity_variance>
0.7263810039

$$$$



 19 18  0  0  0  0  0  0  0  0999 V2000
  -50.9672   59.2062   64.2118 C   0  0  0  0  0  0  0  0  0  0  0  0
  -50.2951   58.6705   65.4684 C   0  0  0  0  0  0  0  0  0  0  0  0
  -48.8427   58.2910   65.2347 C   0  0  0  0  0  0  0  0  0  0  0  0
  -48.4386   57.1628   66.1696 C   0  0  0  0  0  0  0  0  0  0  0  0
  -46.9376   56.9571   66.0746 C   0  0  0  0  0  0  0  0  0  0  0  0
  -46.1726   58.0304   66.8326 C   0  0  0  0  0  0  0  0  0  0  0  0
  -45.2617   58.7578   65.8751 C   0  0  0  0  0  0  0  0  0  0  0  0
  -44.1766   58.2469   65.5355 O   0  0  0  0  0  0  0  0  0  0  0  0
  -45.5700   59.8763   65.4118 O   0  0  0  0  0  0  0  0  0  0  0  0
  -46.3814   60.2767   65.6551 H   0  0  0  0  0  0  0  0  0  0  0  0
  -50.3805   58.4482   63.0299 C   0  0  0  0  0  0  0  0  0  0  0  0
  -51.4023   58.2359   61.9388 C   0  0  0  0  0  0  0  0  0  0  0  0
  -51.0587   57.4110   60.7697 C   0  0  0  0  0  0  0  0  0  0  0  0
  -49.6274   56.9766   60.5773 C   0  0  0  0  0  0  0  0  0  0  0  0
  -49.0689   57.5223   59.2677 C   0  0  0  0  0  0  0  0  0  0  0  0
  -47.5513   57.3450   59.2239 C   0  0  0  0  0  0  0  0  0  0  0  0
  -46.9952   57.5747   57.8194 C   0  0  0  0  0  0  0  0  0  0  0  0
  -47.6581   56.6598   56.7865 C   0  0  0  0  0  0  0  0  0  0  0  0
  -47.3785   55.1802   57.0369 C   0  0  0  0  0  0  0  0  0  0  0  0
  7  8  2  0  0  0
  7  6  1  0  0  0
  7  9  1  0  0  0
  6  5  1  0  0  0
  5  4  1  0  0  0
  4  3  1  0  0  0
  3  2  1  0  0  0
  2  1  1  0  0  0
  1 11  1  0  0  0
 11 12  1  0  0  0
 12 13  2  0  0  0
 13 14  1  0  0  0
 14 15  1  0  0  0
 15 16  1  0  0  0
 16 17  1  0  0  0
 17 18  1  0  0  0
 18 19  1  0  0  0
  9 10  1  0  0  0
M  END
> <minimizedAffinity>
-7.47528

> <CNNscore>
0.7720134854

> <CNNaffinity>
6.4635138512

> <CNN_VS>
4.9899196625

> <CNNaffinity_variance>
0.4379085004

$$$$



 19 18  0  0  0  0  0  0  0  0999 V2000
  -49.2122   58.0570   59.6428 C   0  0  0  0  0  0  0  0  0  0  0  0
  -48.3208   56.9783   59.0431 C   0  0  0  0  0  0  0  0  0  0  0  0
  -47.5602   57.4649   57.8212 C   0  0  0  0  0  0  0  0  0  0  0  0
  -46.0715   57.2137   57.9960 C   0  0  0  0  0  0  0  0  0  0  0  0
  -45.3046   58.4225   57.4910 C   0  0  0  0  0  0  0  0  0  0  0  0
  -43.8889   58.4632   58.0440 C   0  0  0  0  0  0  0  0  0  0  0  0
  -42.9321   58.8053   56.9291 C   0  0  0  0  0  0  0  0  0  0  0  0
  -42.8399   59.9805   56.5239 O   0  0  0  0  0  0  0  0  0  0  0  0
  -42.2240   57.9274   56.3917 O   0  0  0  0  0  0  0  0  0  0  0  0
  -42.2791   57.0383   56.6823 H   0  0  0  0  0  0  0  0  0  0  0  0
  -49.6978   57.5417   60.9898 C   0  0  0  0  0  0  0  0  0  0  0  0
  -50.9510   58.2524   61.4417 C   0  0  0  0  0  0  0  0  0  0  0  0
  -51.0706   58.7007   62.8381 C   0  0  0  0  0  0  0  0  0  0  0  0
  -50.0386   58.2500   63.8411 C   0  0  0  0  0  0  0  0  0  0  0  0
  -50.4747   58.6010   65.2594 C   0  0  0  0  0  0  0  0  0  0  0  0
  -49.4577   59.5385   65.9100 C   0  0  0  0  0  0  0  0  0  0  0  0
  -48.3005   58.7667   66.5423 C   0  0  0  0  0  0  0  0  0  0  0  0
  -46.9431   59.2451   66.0209 C   0  0  0  0  0  0  0  0  0  0  0  0
  -46.3988   58.3729   64.8927 C   0  0  0  0  0  0  0  0  0  0  0  0
  7  8  2  0  0  0
  7  6  1  0  0  0
  7  9  1  0  0  0
  6  5  1  0  0  0
  5  4  1  0  0  0
  4  3  1  0  0  0
  3  2  1  0  0  0
  2  1  1  0  0  0
  1 11  1  0  0  0
 11 12  1  0  0  0
 12 13  2  0  0  0
 13 14  1  0  0  0
 14 15  1  0  0  0
 15 16  1  0  0  0
 16 17  1  0  0  0
 17 18  1  0  0  0
 18 19  1  0  0  0
  9 10  1  0  0  0
M  END
> <minimizedAffinity>
-6.85163

> <CNNscore>
0.7426423430

> <CNNaffinity>
6.2812523842

> <CNN_VS>
4.6647238731

> <CNNaffinity_variance>
0.4582646489

$$$$



 19 18  0  0  0  0  0  0  0  0999 V2000
  -47.1313   59.6005   65.8325 C   0  0  0  0  0  0  0  0  0  0  0  0
  -46.7860   58.3989   64.9638 C   0  0  0  0  0  0  0  0  0  0  0  0
  -45.2906   58.2555   64.7368 C   0  0  0  0  0  0  0  0  0  0  0  0
  -44.5378   59.3251   65.5111 C   0  0  0  0  0  0  0  0  0  0  0  0
  -43.7090   58.6586   66.5943 C   0  0  0  0  0  0  0  0  0  0  0  0
  -42.6635   59.6033   67.1653 C   0  0  0  0  0  0  0  0  0  0  0  0
  -41.4392   59.5767   66.2845 C   0  0  0  0  0  0  0  0  0  0  0  0
  -41.0177   58.4938   65.8336 O   0  0  0  0  0  0  0  0  0  0  0  0
  -40.8266   60.6266   65.9958 O   0  0  0  0  0  0  0  0  0  0  0  0
  -41.1279   61.4504   66.3251 H   0  0  0  0  0  0  0  0  0  0  0  0
  -48.4731   60.1330   65.3511 C   0  0  0  0  0  0  0  0  0  0  0  0
  -49.6274   59.3796   65.9673 C   0  0  0  0  0  0  0  0  0  0  0  0
  -50.7583   58.9626   65.1232 C   0  0  0  0  0  0  0  0  0  0  0  0
  -50.8472   59.4839   63.7109 C   0  0  0  0  0  0  0  0  0  0  0  0
  -50.2425   58.4871   62.7283 C   0  0  0  0  0  0  0  0  0  0  0  0
  -51.3194   57.9549   61.7831 C   0  0  0  0  0  0  0  0  0  0  0  0
  -50.7489   57.6235   60.4049 C   0  0  0  0  0  0  0  0  0  0  0  0
  -49.6721   56.5379   60.4791 C   0  0  0  0  0  0  0  0  0  0  0  0
  -48.4514   56.8517   59.6181 C   0  0  0  0  0  0  0  0  0  0  0  0
  7  8  2  0  0  0
  7  6  1  0  0  0
  7  9  1  0  0  0
  6  5  1  0  0  0
  5  4  1  0  0  0
  4  3  1  0  0  0
  3  2  1  0  0  0
  2  1  1  0  0  0
  1 11  1  0  0  0
 11 12  1  0  0  0
 12 13  2  0  0  0
 13 14  1  0  0  0
 14 15  1  0  0  0
 15 16  1  0  0  0
 16 17  1  0  0  0
 17 18  1  0  0  0
 18 19  1  0  0  0
  9 10  1  0  0  0
M  END
> <minimizedAffinity>
-6.92588

> <CNNscore>
0.7392485738

> <CNNaffinity>
6.2109866142

> <CNN_VS>
4.5914630890

> <CNNaffinity_variance>
0.4837337434

$$$$



 19 18  0  0  0  0  0  0  0  0999 V2000
  -51.5527   59.2933   62.6528 C   0  0  0  0  0  0  0  0  0  0  0  0
  -50.4616   58.6412   61.8149 C   0  0  0  0  0  0  0  0  0  0  0  0
  -51.0167   57.6495   60.8067 C   0  0  0  0  0  0  0  0  0  0  0  0
  -50.2852   57.7843   59.4813 C   0  0  0  0  0  0  0  0  0  0  0  0
  -48.8000   57.5735   59.7139 C   0  0  0  0  0  0  0  0  0  0  0  0
  -48.0574   57.3122   58.4131 C   0  0  0  0  0  0  0  0  0  0  0  0
  -47.8920   55.8242   58.2284 C   0  0  0  0  0  0  0  0  0  0  0  0
  -47.5788   55.3644   57.1130 O   0  0  0  0  0  0  0  0  0  0  0  0
  -48.0679   55.0307   59.1772 O   0  0  0  0  0  0  0  0  0  0  0  0
  -48.3037   55.3571   60.0233 H   0  0  0  0  0  0  0  0  0  0  0  0
  -50.8618   60.0875   63.7517 C   0  0  0  0  0  0  0  0  0  0  0  0
  -50.7075   59.2761   65.0156 C   0  0  0  0  0  0  0  0  0  0  0  0
  -49.4725   59.3895   65.8077 C   0  0  0  0  0  0  0  0  0  0  0  0
  -48.3005   60.1423   65.2298 C   0  0  0  0  0  0  0  0  0  0  0  0
  -46.9875   59.6175   65.8002 C   0  0  0  0  0  0  0  0  0  0  0  0
  -46.4402   58.4925   64.9221 C   0  0  0  0  0  0  0  0  0  0  0  0
  -45.8151   57.3760   65.7572 C   0  0  0  0  0  0  0  0  0  0  0  0
  -46.7415   56.9227   66.8885 C   0  0  0  0  0  0  0  0  0  0  0  0
  -47.8322   55.9652   66.4158 C   0  0  0  0  0  0  0  0  0  0  0  0
  7  8  2  0  0  0
  7  6  1  0  0  0
  7  9  1  0  0  0
  6  5  1  0  0  0
  5  4  1  0  0  0
  4  3  1  0  0  0
  3  2  1  0  0  0
  2  1  1  0  0  0
  1 11  1  0  0  0
 11 12  1  0  0  0
 12 13  2  0  0  0
 13 14  1  0  0  0
 14 15  1  0  0  0
 15 16  1  0  0  0
 16 17  1  0  0  0
 17 18  1  0  0  0
 18 19  1  0  0  0
  9 10  1  0  0  0
M  END
> <minimizedAffinity>
-7.37858

> <CNNscore>
0.7297543883

> <CNNaffinity>
6.3835911751

> <CNN_VS>
4.6584534645

> <CNNaffinity_variance>
0.5462219715

$$$$
