


 19 18  0  0  0  0  0  0  0  0999 V2000
  -46.1342   58.3413   65.8801 C   0  0  0  0  0  0  0  0  0  0  0  0
  -45.2638   57.8671   64.7245 C   0  0  0  0  0  0  0  0  0  0  0  0
  -43.8651   57.4771   65.1714 C   0  0  0  0  0  0  0  0  0  0  0  0
  -42.8864   57.6225   64.0178 C   0  0  0  0  0  0  0  0  0  0  0  0
  -42.3253   59.0331   64.0217 C   0  0  0  0  0  0  0  0  0  0  0  0
  -41.6165   59.3539   65.3280 C   0  0  0  0  0  0  0  0  0  0  0  0
  -41.0352   60.7435   65.2468 C   0  0  0  0  0  0  0  0  0  0  0  0
  -40.8511   61.4052   66.2870 O   0  0  0  0  0  0  0  0  0  0  0  0
  -40.7341   61.2559   64.1479 O   0  0  0  0  0  0  0  0  0  0  0  0
  -40.8650   60.7744   63.3548 H   0  0  0  0  0  0  0  0  0  0  0  0
  -47.5705   58.3720   65.3783 C   0  0  0  0  0  0  0  0  0  0  0  0
  -47.8539   59.6151   64.5695 C   0  0  0  0  0  0  0  0  0  0  0  0
  -48.8986   59.5875   63.5335 C   0  0  0  0  0  0  0  0  0  0  0  0
  -49.5121   58.2644   63.1496 C   0  0  0  0  0  0  0  0  0  0  0  0
  -50.7867   58.4750   62.3398 C   0  0  0  0  0  0  0  0  0  0  0  0
  -50.8257   57.5126   61.1529 C   0  0  0  0  0  0  0  0  0  0  0  0
  -50.0254   58.0460   59.9656 C   0  0  0  0  0  0  0  0  0  0  0  0
  -48.7421   57.2437   59.7359 C   0  0  0  0  0  0  0  0  0  0  0  0
  -47.6834   58.0247   58.9618 C   0  0  0  0  0  0  0  0  0  0  0  0
  7  8  2  0  0  0
  7  6  1  0  0  0
  7  9  1  0  0  0
  6  5  1  0  0  0
  5  4  1  0  0  0
  4  3  1  0  0  0
  3  2  1  0  0  0
  2  1  1  0  0  0
  1 11  1  0  0  0
 11 12  1  0  0  0
 12 13  2  0  0  0
 13 14  1  0  0  0
 14 15  1  0  0  0
 15 16  1  0  0  0
 16 17  1  0  0  0
 17 18  1  0  0  0
 18 19  1  0  0  0
  9 10  1  0  0  0
M  END
> <minimizedAffinity>
-6.87134

> <CNNscore>
0.8219931126

> <CNNaffinity>
6.3489799500

> <CNN_VS>
5.2188177109

> <CNNaffinity_variance>
0.1588922441

$$$$



 19 18  0  0  0  0  0  0  0  0999 V2000
  -44.8158   57.5106   66.4515 C   0  0  0  0  0  0  0  0  0  0  0  0
  -44.7443   58.0920   65.0463 C   0  0  0  0  0  0  0  0  0  0  0  0
  -43.6290   57.4768   64.2181 C   0  0  0  0  0  0  0  0  0  0  0  0
  -42.3347   57.4563   65.0146 C   0  0  0  0  0  0  0  0  0  0  0  0
  -42.0114   58.8688   65.4669 C   0  0  0  0  0  0  0  0  0  0  0  0
  -41.2237   59.6315   64.4135 C   0  0  0  0  0  0  0  0  0  0  0  0
  -40.8888   61.0035   64.9436 C   0  0  0  0  0  0  0  0  0  0  0  0
  -40.1510   61.1247   65.9409 O   0  0  0  0  0  0  0  0  0  0  0  0
  -41.3424   62.0346   64.4032 O   0  0  0  0  0  0  0  0  0  0  0  0
  -41.8987   61.9641   63.6525 H   0  0  0  0  0  0  0  0  0  0  0  0
  -46.1976   57.8325   67.0017 C   0  0  0  0  0  0  0  0  0  0  0  0
  -47.2736   57.0209   66.3210 C   0  0  0  0  0  0  0  0  0  0  0  0
  -48.5030   57.6841   65.8584 C   0  0  0  0  0  0  0  0  0  0  0  0
  -48.7605   59.1129   66.2667 C   0  0  0  0  0  0  0  0  0  0  0  0
  -48.5959   60.0524   65.0771 C   0  0  0  0  0  0  0  0  0  0  0  0
  -49.8487   60.9104   64.9020 C   0  0  0  0  0  0  0  0  0  0  0  0
  -51.1078   60.0539   64.7762 C   0  0  0  0  0  0  0  0  0  0  0  0
  -51.5464   59.8949   63.3182 C   0  0  0  0  0  0  0  0  0  0  0  0
  -51.0702   58.5860   62.6937 C   0  0  0  0  0  0  0  0  0  0  0  0
  7  8  2  0  0  0
  7  6  1  0  0  0
  7  9  1  0  0  0
  6  5  1  0  0  0
  5  4  1  0  0  0
  4  3  1  0  0  0
  3  2  1  0  0  0
  2  1  1  0  0  0
  1 11  1  0  0  0
 11 12  1  0  0  0
 12 13  2  0  0  0
 13 14  1  0  0  0
 14 15  1  0  0  0
 15 16  1  0  0  0
 16 17  1  0  0  0
 17 18  1  0  0  0
 18 19  1  0  0  0
  9 10  1  0  0  0
M  END
> <minimizedAffinity>
-6.70114

> <CNNscore>
0.7261391878

> <CNNaffinity>
6.1986207962

> <CNN_VS>
4.5010614395

> <CNNaffinity_variance>
0.2070654631

$$$$



 19 18  0  0  0  0  0  0  0  0999 V2000
  -46.0454   58.0563   64.9377 C   0  0  0  0  0  0  0  0  0  0  0  0
  -45.4787   58.1064   66.3499 C   0  0  0  0  0  0  0  0  0  0  0  0
  -44.0133   57.7090   66.4032 C   0  0  0  0  0  0  0  0  0  0  0  0
  -43.3385   58.0150   65.0762 C   0  0  0  0  0  0  0  0  0  0  0  0
  -41.8964   58.4116   65.3361 C   0  0  0  0  0  0  0  0  0  0  0  0
  -41.7710   59.3158   66.5520 C   0  0  0  0  0  0  0  0  0  0  0  0
  -40.6884   60.3357   66.3002 C   0  0  0  0  0  0  0  0  0  0  0  0
  -40.9687   61.5500   66.2725 O   0  0  0  0  0  0  0  0  0  0  0  0
  -39.5032   59.9884   66.1117 O   0  0  0  0  0  0  0  0  0  0  0  0
  -39.2727   59.0804   66.1287 H   0  0  0  0  0  0  0  0  0  0  0  0
  -47.2199   59.0228   64.8898 C   0  0  0  0  0  0  0  0  0  0  0  0
  -48.0745   58.9265   66.1308 C   0  0  0  0  0  0  0  0  0  0  0  0
  -49.4049   59.5549   66.1494 C   0  0  0  0  0  0  0  0  0  0  0  0
  -49.7984   60.4663   65.0141 C   0  0  0  0  0  0  0  0  0  0  0  0
  -51.2920   60.3574   64.7272 C   0  0  0  0  0  0  0  0  0  0  0  0
  -51.5228   59.8725   63.2961 C   0  0  0  0  0  0  0  0  0  0  0  0
  -50.8165   58.5443   63.0280 C   0  0  0  0  0  0  0  0  0  0  0  0
  -49.9286   58.6115   61.7828 C   0  0  0  0  0  0  0  0  0  0  0  0
  -49.5993   60.0420   61.3641 C   0  0  0  0  0  0  0  0  0  0  0  0
  7  8  2  0  0  0
  7  6  1  0  0  0
  7  9  1  0  0  0
  6  5  1  0  0  0
  5  4  1  0  0  0
  4  3  1  0  0  0
  3  2  1  0  0  0
  2  1  1  0  0  0
  1 11  1  0  0  0
 11 12  1  0  0  0
 12 13  2  0  0  0
 13 14  1  0  0  0
 14 15  1  0  0  0
 15 16  1  0  0  0
 16 17  1  0  0  0
 17 18  1  0  0  0
 18 19  1  0  0  0
  9 10  1  0  0  0
M  END
> <minimizedAffinity>
-6.83812

> <CNNscore>
0.6880373955

> <CNNaffinity>
6.1109170914

> <CNN_VS>
4.2045392990

> <CNNaffinity_variance>
0.1322673410

$$$$



 19 18  0  0  0  0  0  0  0  0999 V2000
  -50.3946   59.5991   62.3043 C   0  0  0  0  0  0  0  0  0  0  0  0
  -50.7634   58.1274   62.1784 C   0  0  0  0  0  0  0  0  0  0  0  0
  -50.6303   57.6139   60.7547 C   0  0  0  0  0  0  0  0  0  0  0  0
  -49.3809   58.1862   60.1056 C   0  0  0  0  0  0  0  0  0  0  0  0
  -48.6341   57.0676   59.4018 C   0  0  0  0  0  0  0  0  0  0  0  0
  -48.1363   57.4975   58.0310 C   0  0  0  0  0  0  0  0  0  0  0  0
  -47.3644   56.3618   57.4066 C   0  0  0  0  0  0  0  0  0  0  0  0
  -46.4564   56.6003   56.5866 O   0  0  0  0  0  0  0  0  0  0  0  0
  -47.6192   55.1724   57.6914 O   0  0  0  0  0  0  0  0  0  0  0  0
  -48.2981   54.9728   58.3056 H   0  0  0  0  0  0  0  0  0  0  0  0
  -49.4574   59.7277   63.4963 C   0  0  0  0  0  0  0  0  0  0  0  0
  -49.6468   58.5988   64.4810 C   0  0  0  0  0  0  0  0  0  0  0  0
  -48.4793   58.0379   65.1791 C   0  0  0  0  0  0  0  0  0  0  0  0
  -47.0970   58.4490   64.7379 C   0  0  0  0  0  0  0  0  0  0  0  0
  -46.0352   57.5984   65.4263 C   0  0  0  0  0  0  0  0  0  0  0  0
  -44.6919   57.7474   64.7122 C   0  0  0  0  0  0  0  0  0  0  0  0
  -43.5801   56.9876   65.4343 C   0  0  0  0  0  0  0  0  0  0  0  0
  -42.6218   56.3092   64.4522 C   0  0  0  0  0  0  0  0  0  0  0  0
  -41.1987   56.8547   64.5377 C   0  0  0  0  0  0  0  0  0  0  0  0
  7  8  2  0  0  0
  7  6  1  0  0  0
  7  9  1  0  0  0
  6  5  1  0  0  0
  5  4  1  0  0  0
  4  3  1  0  0  0
  3  2  1  0  0  0
  2  1  1  0  0  0
  1 11  1  0  0  0
 11 12  1  0  0  0
 12 13  2  0  0  0
 13 14  1  0  0  0
 14 15  1  0  0  0
 15 16  1  0  0  0
 16 17  1  0  0  0
 17 18  1  0  0  0
 18 19  1  0  0  0
  9 10  1  0  0  0
M  END
> <minimizedAffinity>
-6.73553

> <CNNscore>
0.6842726469

> <CNNaffinity>
6.3792657852

> <CNN_VS>
4.3651571274

> <CNNaffinity_variance>
0.2785504460

$$$$



 19 18  0  0  0  0  0  0  0  0999 V2000
  -45.7255   57.2805   65.4530 C   0  0  0  0  0  0  0  0  0  0  0  0
  -44.6866   58.0320   64.6323 C   0  0  0  0  0  0  0  0  0  0  0  0
  -43.2668   57.7558   65.0973 C   0  0  0  0  0  0  0  0  0  0  0  0
  -43.1844   57.8463   66.6123 C   0  0  0  0  0  0  0  0  0  0  0  0
  -42.2230   58.9594   66.9882 C   0  0  0  0  0  0  0  0  0  0  0  0
  -41.1593   59.1693   65.9224 C   0  0  0  0  0  0  0  0  0  0  0  0
  -40.4448   60.4713   66.1865 C   0  0  0  0  0  0  0  0  0  0  0  0
  -39.2198   60.4757   66.4174 O   0  0  0  0  0  0  0  0  0  0  0  0
  -41.0594   61.5590   66.1841 O   0  0  0  0  0  0  0  0  0  0  0  0
  -41.9804   61.5763   66.0126 H   0  0  0  0  0  0  0  0  0  0  0  0
  -46.7962   58.2855   65.8523 C   0  0  0  0  0  0  0  0  0  0  0  0
  -46.9910   59.3451   64.7945 C   0  0  0  0  0  0  0  0  0  0  0  0
  -48.2568   59.4032   64.0463 C   0  0  0  0  0  0  0  0  0  0  0  0
  -49.2454   58.2740   64.1942 C   0  0  0  0  0  0  0  0  0  0  0  0
  -50.6475   58.7295   63.8049 C   0  0  0  0  0  0  0  0  0  0  0  0
  -50.7414   58.9206   62.2912 C   0  0  0  0  0  0  0  0  0  0  0  0
  -51.0734   57.6122   61.5754 C   0  0  0  0  0  0  0  0  0  0  0  0
  -50.1264   57.3475   60.4022 C   0  0  0  0  0  0  0  0  0  0  0  0
  -48.8739   58.2192   60.4411 C   0  0  0  0  0  0  0  0  0  0  0  0
  7  8  2  0  0  0
  7  6  1  0  0  0
  7  9  1  0  0  0
  6  5  1  0  0  0
  5  4  1  0  0  0
  4  3  1  0  0  0
  3  2  1  0  0  0
  2  1  1  0  0  0
  1 11  1  0  0  0
 11 12  1  0  0  0
 12 13  2  0  0  0
 13 14  1  0  0  0
 14 15  1  0  0  0
 15 16  1  0  0  0
 16 17  1  0  0  0
 17 18  1  0  0  0
 18 19  1  0  0  0
  9 10  1  0  0  0
M  END
> <minimizedAffinity>
-6.82319

> <CNNscore>
0.6742514968

> <CNNaffinity>
6.0612382889

> <CNN_VS>
4.0867991447

> <CNNaffinity_variance>
0.0784155950

$$$$



 19 18  0  0  0  0  0  0  0  0999 V2000
  -49.7930   58.2898   61.8301 C   0  0  0  0  0  0  0  0  0  0  0  0
  -50.2254   57.4664   60.6247 C   0  0  0  0  0  0  0  0  0  0  0  0
  -49.5179   57.8880   59.3481 C   0  0  0  0  0  0  0  0  0  0  0  0
  -48.0264   57.6185   59.4616 C   0  0  0  0  0  0  0  0  0  0  0  0
  -47.3028   58.3795   58.3655 C   0  0  0  0  0  0  0  0  0  0  0  0
  -46.3798   57.4739   57.5657 C   0  0  0  0  0  0  0  0  0  0  0  0
  -47.2070   56.6236   56.6338 C   0  0  0  0  0  0  0  0  0  0  0  0
  -47.1936   55.3821   56.7439 O   0  0  0  0  0  0  0  0  0  0  0  0
  -47.9108   57.1398   55.7399 O   0  0  0  0  0  0  0  0  0  0  0  0
  -47.9340   58.0713   55.6412 H   0  0  0  0  0  0  0  0  0  0  0  0
  -50.9763   58.3445   62.7854 C   0  0  0  0  0  0  0  0  0  0  0  0
  -51.3568   59.7660   63.1235 C   0  0  0  0  0  0  0  0  0  0  0  0
  -51.1111   60.2829   64.4792 C   0  0  0  0  0  0  0  0  0  0  0  0
  -50.6890   59.3220   65.5621 C   0  0  0  0  0  0  0  0  0  0  0  0
  -49.2198   59.5213   65.9182 C   0  0  0  0  0  0  0  0  0  0  0  0
  -48.3980   58.3114   65.4744 C   0  0  0  0  0  0  0  0  0  0  0  0
  -47.1900   58.7250   64.6352 C   0  0  0  0  0  0  0  0  0  0  0  0
  -45.9154   57.9993   65.0735 C   0  0  0  0  0  0  0  0  0  0  0  0
  -45.7327   57.9817   66.5889 C   0  0  0  0  0  0  0  0  0  0  0  0
  7  8  2  0  0  0
  7  6  1  0  0  0
  7  9  1  0  0  0
  6  5  1  0  0  0
  5  4  1  0  0  0
  4  3  1  0  0  0
  3  2  1  0  0  0
  2  1  1  0  0  0
  1 11  1  0  0  0
 11 12  1  0  0  0
 12 13  2  0  0  0
 13 14  1  0  0  0
 14 15  1  0  0  0
 15 16  1  0  0  0
 16 17  1  0  0  0
 17 18  1  0  0  0
 18 19  1  0  0  0
  9 10  1  0  0  0
M  END
> <minimizedAffinity>
-7.99251

> <CNNscore>
0.6677483916

> <CNNaffinity>
6.2888040543

> <CNN_VS>
4.1993389130

> <CNNaffinity_variance>
0.0744700059

$$$$



 19 18  0  0  0  0  0  0  0  0999 V2000
  -42.7880   56.6236   64.6678 C   0  0  0  0  0  0  0  0  0  0  0  0
  -42.3735   56.4415   63.2142 C   0  0  0  0  0  0  0  0  0  0  0  0
  -40.9763   56.9700   62.9370 C   0  0  0  0  0  0  0  0  0  0  0  0
  -41.0545   58.3110   62.2260 C   0  0  0  0  0  0  0  0  0  0  0  0
  -40.5229   58.1518   60.8130 C   0  0  0  0  0  0  0  0  0  0  0  0
  -39.0348   58.4533   60.7335 C   0  0  0  0  0  0  0  0  0  0  0  0
  -38.8254   59.6937   59.9010 C   0  0  0  0  0  0  0  0  0  0  0  0
  -39.7836   60.2038   59.2884 O   0  0  0  0  0  0  0  0  0  0  0  0
  -37.6995   60.2267   59.8056 O   0  0  0  0  0  0  0  0  0  0  0  0
  -36.9667   59.8581   60.2586 H   0  0  0  0  0  0  0  0  0  0  0  0
  -43.9088   57.6528   64.6904 C   0  0  0  0  0  0  0  0  0  0  0  0
  -44.4918   57.8145   66.0737 C   0  0  0  0  0  0  0  0  0  0  0  0
  -45.9134   58.1615   66.2289 C   0  0  0  0  0  0  0  0  0  0  0  0
  -46.7047   58.5632   65.0095 C   0  0  0  0  0  0  0  0  0  0  0  0
  -47.9742   59.3065   65.4106 C   0  0  0  0  0  0  0  0  0  0  0  0
  -48.9108   58.3776   66.1827 C   0  0  0  0  0  0  0  0  0  0  0  0
  -50.3602   58.5254   65.7222 C   0  0  0  0  0  0  0  0  0  0  0  0
  -50.6994   59.9739   65.3616 C   0  0  0  0  0  0  0  0  0  0  0  0
  -51.3944   60.1025   64.0087 C   0  0  0  0  0  0  0  0  0  0  0  0
  7  8  2  0  0  0
  7  6  1  0  0  0
  7  9  1  0  0  0
  6  5  1  0  0  0
  5  4  1  0  0  0
  4  3  1  0  0  0
  3  2  1  0  0  0
  2  1  1  0  0  0
  1 11  1  0  0  0
 11 12  1  0  0  0
 12 13  2  0  0  0
 13 14  1  0  0  0
 14 15  1  0  0  0
 15 16  1  0  0  0
 16 17  1  0  0  0
 17 18  1  0  0  0
 18 19  1  0  0  0
  9 10  1  0  0  0
M  END
> <minimizedAffinity>
-6.68516

> <CNNscore>
0.6345791221

> <CNNaffinity>
5.9664964676

> <CNN_VS>
3.7862141132

> <CNNaffinity_variance>
0.3790713251

$$$$



 19 18  0  0  0  0  0  0  0  0999 V2000
  -51.1178   57.6673   61.5438 C   0  0  0  0  0  0  0  0  0  0  0  0
  -49.9277   56.9831   60.8855 C   0  0  0  0  0  0  0  0  0  0  0  0
  -48.7782   57.9410   60.6224 C   0  0  0  0  0  0  0  0  0  0  0  0
  -48.5917   58.1380   59.1269 C   0  0  0  0  0  0  0  0  0  0  0  0
  -47.1354   57.8931   58.7750 C   0  0  0  0  0  0  0  0  0  0  0  0
  -46.9803   57.3524   57.3625 C   0  0  0  0  0  0  0  0  0  0  0  0
  -47.1528   55.8540   57.3849 C   0  0  0  0  0  0  0  0  0  0  0  0
  -47.2507   55.2528   58.4725 O   0  0  0  0  0  0  0  0  0  0  0  0
  -47.1960   55.1915   56.3266 O   0  0  0  0  0  0  0  0  0  0  0  0
  -47.1241   55.6252   55.4991 H   0  0  0  0  0  0  0  0  0  0  0  0
  -50.6341   59.0157   62.0573 C   0  0  0  0  0  0  0  0  0  0  0  0
  -51.3380   59.4138   63.3323 C   0  0  0  0  0  0  0  0  0  0  0  0
  -50.5471   59.7379   64.5302 C   0  0  0  0  0  0  0  0  0  0  0  0
  -49.0658   59.4550   64.5262 C   0  0  0  0  0  0  0  0  0  0  0  0
  -48.7895   58.0178   64.9541 C   0  0  0  0  0  0  0  0  0  0  0  0
  -47.4838   57.9421   65.7451 C   0  0  0  0  0  0  0  0  0  0  0  0
  -46.2839   58.3633   64.8981 C   0  0  0  0  0  0  0  0  0  0  0  0
  -45.0676   57.4675   65.1464 C   0  0  0  0  0  0  0  0  0  0  0  0
  -44.4336   57.6926   66.5165 C   0  0  0  0  0  0  0  0  0  0  0  0
  7  8  2  0  0  0
  7  6  1  0  0  0
  7  9  1  0  0  0
  6  5  1  0  0  0
  5  4  1  0  0  0
  4  3  1  0  0  0
  3  2  1  0  0  0
  2  1  1  0  0  0
  1 11  1  0  0  0
 11 12  1  0  0  0
 12 13  2  0  0  0
 13 14  1  0  0  0
 14 15  1  0  0  0
 15 16  1  0  0  0
 16 17  1  0  0  0
 17 18  1  0  0  0
 18 19  1  0  0  0
  9 10  1  0  0  0
M  END
> <minimizedAffinity>
-7.46721

> <CNNscore>
0.6309913397

> <CNNaffinity>
6.3618140221

> <CNN_VS>
4.0142493248

> <CNNaffinity_variance>
0.0397448428

$$$$



 19 18  0  0  0  0  0  0  0  0999 V2000
  -46.7320   57.7674   66.7010 C   0  0  0  0  0  0  0  0  0  0  0  0
  -45.2991   58.1649   66.3747 C   0  0  0  0  0  0  0  0  0  0  0  0
  -44.6309   57.1960   65.4140 C   0  0  0  0  0  0  0  0  0  0  0  0
  -43.1981   57.6271   65.1468 C   0  0  0  0  0  0  0  0  0  0  0  0
  -42.3398   56.3907   64.9491 C   0  0  0  0  0  0  0  0  0  0  0  0
  -41.2138   56.6389   63.9580 C   0  0  0  0  0  0  0  0  0  0  0  0
  -41.3812   55.7145   62.7778 C   0  0  0  0  0  0  0  0  0  0  0  0
  -41.7641   56.1655   61.6806 O   0  0  0  0  0  0  0  0  0  0  0  0
  -41.1469   54.4912   62.8754 O   0  0  0  0  0  0  0  0  0  0  0  0
  -40.8582   54.1332   63.6917 H   0  0  0  0  0  0  0  0  0  0  0  0
  -47.5300   57.8598   65.4085 C   0  0  0  0  0  0  0  0  0  0  0  0
  -47.4603   59.2425   64.8059 C   0  0  0  0  0  0  0  0  0  0  0  0
  -48.4570   59.6511   63.8034 C   0  0  0  0  0  0  0  0  0  0  0  0
  -49.3920   58.6121   63.2370 C   0  0  0  0  0  0  0  0  0  0  0  0
  -49.7389   58.9311   61.7869 C   0  0  0  0  0  0  0  0  0  0  0  0
  -49.3199   57.7776   60.8757 C   0  0  0  0  0  0  0  0  0  0  0  0
  -48.7548   58.2817   59.5486 C   0  0  0  0  0  0  0  0  0  0  0  0
  -47.4478   57.5751   59.1799 C   0  0  0  0  0  0  0  0  0  0  0  0
  -46.7281   58.2318   58.0049 C   0  0  0  0  0  0  0  0  0  0  0  0
  7  8  2  0  0  0
  7  6  1  0  0  0
  7  9  1  0  0  0
  6  5  1  0  0  0
  5  4  1  0  0  0
  4  3  1  0  0  0
  3  2  1  0  0  0
  2  1  1  0  0  0
  1 11  1  0  0  0
 11 12  1  0  0  0
 12 13  2  0  0  0
 13 14  1  0  0  0
 14 15  1  0  0  0
 15 16  1  0  0  0
 16 17  1  0  0  0
 17 18  1  0  0  0
 18 19  1  0  0  0
  9 10  1  0  0  0
M  END
> <minimizedAffinity>
-6.73243

> <CNNscore>
0.6085271835

> <CNNaffinity>
6.1740322113

> <CNN_VS>
3.7570664883

> <CNNaffinity_variance>
0.2643480897

$$$$
