


 37 36  0  0  0  0  0  0  0  0999 V2000
  -42.9708   59.6399   65.3283 O   0  0  0  0  0  0  0  0  0  0  0  0
  -42.3337   58.6205   65.2303 C   0  0  0  0  0  0  0  0  0  0  0  0
  -42.7796   57.2710   65.7032 C   0  0  0  0  0  0  0  0  0  0  0  0
  -44.0461   57.3207   66.5495 C   0  0  0  0  0  0  0  0  0  0  0  0
  -45.3355   57.3034   65.7465 C   0  0  0  0  0  0  0  0  0  0  0  0
  -46.5055   57.9487   66.4680 C   0  0  0  0  0  0  0  0  0  0  0  0
  -47.8427   57.3292   66.0997 C   0  0  0  0  0  0  0  0  0  0  0  0
  -48.5422   58.0922   64.9970 C   0  0  0  0  0  0  0  0  0  0  0  0
  -50.0422   58.2223   65.1677 C   0  0  0  0  0  0  0  0  0  0  0  0
  -50.5330   59.6190   65.1459 C   0  0  0  0  0  0  0  0  0  0  0  0
  -51.0749   60.2347   64.1154 C   0  0  0  0  0  0  0  0  0  0  0  0
  -51.3525   59.6606   62.7641 C   0  0  0  0  0  0  0  0  0  0  0  0
  -50.1933   59.9659   61.8140 C   0  0  0  0  0  0  0  0  0  0  0  0
  -49.9582   58.9348   60.7199 C   0  0  0  0  0  0  0  0  0  0  0  0
  -49.9669   57.4848   61.1885 C   0  0  0  0  0  0  0  0  0  0  0  0
  -49.2155   56.5391   60.2573 C   0  0  0  0  0  0  0  0  0  0  0  0
  -48.8920   57.1445   58.9006 C   0  0  0  0  0  0  0  0  0  0  0  0
  -47.8370   56.4046   58.0920 C   0  0  0  0  0  0  0  0  0  0  0  0
  -47.3650   57.1846   56.9035 C   0  0  0  0  0  0  0  0  0  0  0  0
  -41.1247   58.5414   64.6665 O   0  0  0  0  0  0  0  0  0  0  0  0
  -39.9765   58.8475   65.4879 C   0  0  0  0  0  0  0  0  0  0  0  0
  -39.6700   60.3302   65.4903 C   0  0  0  0  0  0  0  0  0  0  0  0
  -40.5466   61.0363   66.3787 O   0  0  0  0  0  0  0  0  0  0  0  0
  -40.4027   60.7285   67.2873 H   0  0  0  0  0  0  0  0  0  0  0  0
  -38.2352   60.6253   65.8601 C   0  0  0  0  0  0  0  0  0  0  0  0
  -37.6658   61.6610   65.0232 O   0  0  0  0  0  0  0  0  0  0  0  0
  -36.8787   61.6092   63.6254 P   0  0  0  0  0  0  0  0  0  0  0  0
  -37.9078   61.4946   62.5020 O   0  0  0  0  0  0  0  0  0  0  0  0
  -36.0252   60.4012   63.6067 O   0  0  0  0  0  0  0  0  0  0  0  0
  -36.5749   59.6147   63.7486 H   0  0  0  0  0  0  0  0  0  0  0  0
  -35.9839   62.9686   63.3878 O   0  0  0  0  0  0  0  0  0  0  0  0
  -34.6403   63.2037   63.8901 C   0  0  0  0  0  0  0  0  0  0  0  0
  -34.6352   64.3799   64.8349 C   0  0  0  0  0  0  0  0  0  0  0  0
  -34.5291   64.0594   66.3144 N   0  0  0  0  0  0  0  0  0  0  0  0
  -33.7241   65.1030   67.0200 C   0  0  0  0  0  0  0  0  0  0  0  0
  -33.8522   62.7372   66.4691 C   0  0  0  0  0  0  0  0  0  0  0  0
  -35.8940   63.9957   66.9385 C   0  0  0  0  0  0  0  0  0  0  0  0
 34 33  1  0  0  0
 34 35  1  0  0  0
 34 36  1  0  0  0
 34 37  1  0  0  0
 22 23  1  0  0  0
 22 25  1  0  0  0
 22 21  1  0  0  0
 27 26  1  0  0  0
 27 28  2  0  0  0
 27 31  1  0  0  0
 27 29  1  0  0  0
 25 26  1  0  0  0
 32 33  1  0  0  0
 32 31  1  0  0  0
 20 21  1  0  0  0
 20  2  1  0  0  0
  1  2  2  0  0  0
  2  3  1  0  0  0
  3  4  1  0  0  0
  4  5  1  0  0  0
  5  6  1  0  0  0
  6  7  1  0  0  0
  7  8  1  0  0  0
  8  9  1  0  0  0
  9 10  1  0  0  0
 10 11  2  0  0  0
 11 12  1  0  0  0
 12 13  1  0  0  0
 13 14  1  0  0  0
 14 15  1  0  0  0
 15 16  1  0  0  0
 16 17  1  0  0  0
 17 18  1  0  0  0
 18 19  1  0  0  0
 23 24  1  0  0  0
 29 30  1  0  0  0
M  CHG 1  28  -1
M  END
> <minimizedAffinity>
-8.02046

> <CNNscore>
0.8057773113

> <CNNaffinity>
6.5816488266

> <CNN_VS>
5.3033432961

> <CNNaffinity_variance>
0.2815576792

$$$$



 37 36  0  0  0  0  0  0  0  0999 V2000
  -43.0392   57.2669   65.5263 O   0  0  0  0  0  0  0  0  0  0  0  0
  -43.3019   58.2996   64.9613 C   0  0  0  0  0  0  0  0  0  0  0  0
  -44.3452   59.2833   65.3945 C   0  0  0  0  0  0  0  0  0  0  0  0
  -44.7051   59.1644   66.8706 C   0  0  0  0  0  0  0  0  0  0  0  0
  -46.1834   58.9389   67.1374 C   0  0  0  0  0  0  0  0  0  0  0  0
  -46.7991   57.8644   66.2584 C   0  0  0  0  0  0  0  0  0  0  0  0
  -48.2781   58.0902   65.9956 C   0  0  0  0  0  0  0  0  0  0  0  0
  -48.6237   59.5593   65.8964 C   0  0  0  0  0  0  0  0  0  0  0  0
  -48.5259   60.1416   64.5009 C   0  0  0  0  0  0  0  0  0  0  0  0
  -49.8139   60.6332   63.9608 C   0  0  0  0  0  0  0  0  0  0  0  0
  -50.7290   59.9056   63.3542 C   0  0  0  0  0  0  0  0  0  0  0  0
  -50.6962   58.4315   63.1122 C   0  0  0  0  0  0  0  0  0  0  0  0
  -49.7382   58.1074   61.9647 C   0  0  0  0  0  0  0  0  0  0  0  0
  -50.3564   57.3644   60.7894 C   0  0  0  0  0  0  0  0  0  0  0  0
  -50.1530   58.0245   59.4310 C   0  0  0  0  0  0  0  0  0  0  0  0
  -49.0212   57.4064   58.6167 C   0  0  0  0  0  0  0  0  0  0  0  0
  -48.3161   56.2582   59.3213 C   0  0  0  0  0  0  0  0  0  0  0  0
  -47.0388   55.7705   58.6542 C   0  0  0  0  0  0  0  0  0  0  0  0
  -47.1036   55.8376   57.1592 C   0  0  0  0  0  0  0  0  0  0  0  0
  -42.6841   58.7302   63.8575 O   0  0  0  0  0  0  0  0  0  0  0  0
  -41.2429   58.8249   63.8850 C   0  0  0  0  0  0  0  0  0  0  0  0
  -40.7650   60.2018   63.4751 C   0  0  0  0  0  0  0  0  0  0  0  0
  -41.1649   61.1922   64.4319 O   0  0  0  0  0  0  0  0  0  0  0  0
  -40.7466   61.0037   65.2865 H   0  0  0  0  0  0  0  0  0  0  0  0
  -39.2676   60.2632   63.2841 C   0  0  0  0  0  0  0  0  0  0  0  0
  -38.6764   61.3648   64.0151 O   0  0  0  0  0  0  0  0  0  0  0  0
  -37.2573   62.1045   63.8929 P   0  0  0  0  0  0  0  0  0  0  0  0
  -37.0827   63.0070   65.1131 O   0  0  0  0  0  0  0  0  0  0  0  0
  -37.2670   62.9505   62.6794 O   0  0  0  0  0  0  0  0  0  0  0  0
  -38.0055   63.5775   62.7282 H   0  0  0  0  0  0  0  0  0  0  0  0
  -36.0174   61.0247   63.8504 O   0  0  0  0  0  0  0  0  0  0  0  0
  -34.7263   61.1828   64.4993 C   0  0  0  0  0  0  0  0  0  0  0  0
  -33.9433   62.2908   63.8394 C   0  0  0  0  0  0  0  0  0  0  0  0
  -33.4151   63.3825   64.7514 N   0  0  0  0  0  0  0  0  0  0  0  0
  -33.6860   63.0461   66.1827 C   0  0  0  0  0  0  0  0  0  0  0  0
  -34.1070   64.6624   64.4142 C   0  0  0  0  0  0  0  0  0  0  0  0
  -31.9343   63.5534   64.5654 C   0  0  0  0  0  0  0  0  0  0  0  0
 34 33  1  0  0  0
 34 35  1  0  0  0
 34 36  1  0  0  0
 34 37  1  0  0  0
 22 23  1  0  0  0
 22 25  1  0  0  0
 22 21  1  0  0  0
 27 26  1  0  0  0
 27 28  2  0  0  0
 27 31  1  0  0  0
 27 29  1  0  0  0
 25 26  1  0  0  0
 32 33  1  0  0  0
 32 31  1  0  0  0
 20 21  1  0  0  0
 20  2  1  0  0  0
  1  2  2  0  0  0
  2  3  1  0  0  0
  3  4  1  0  0  0
  4  5  1  0  0  0
  5  6  1  0  0  0
  6  7  1  0  0  0
  7  8  1  0  0  0
  8  9  1  0  0  0
  9 10  1  0  0  0
 10 11  2  0  0  0
 11 12  1  0  0  0
 12 13  1  0  0  0
 13 14  1  0  0  0
 14 15  1  0  0  0
 15 16  1  0  0  0
 16 17  1  0  0  0
 17 18  1  0  0  0
 18 19  1  0  0  0
 23 24  1  0  0  0
 29 30  1  0  0  0
M  CHG 1  28  -1
M  END
> <minimizedAffinity>
-8.09576

> <CNNscore>
0.7542030215

> <CNNaffinity>
6.3559441566

> <CNN_VS>
4.7936720848

> <CNNaffinity_variance>
0.1463072300

$$$$



 37 36  0  0  0  0  0  0  0  0999 V2000
  -41.8613   55.1684   64.5922 O   0  0  0  0  0  0  0  0  0  0  0  0
  -42.0042   56.2732   64.1299 C   0  0  0  0  0  0  0  0  0  0  0  0
  -42.6270   57.4358   64.8400 C   0  0  0  0  0  0  0  0  0  0  0  0
  -43.2110   57.0658   66.1982 C   0  0  0  0  0  0  0  0  0  0  0  0
  -44.6576   57.4866   66.3921 C   0  0  0  0  0  0  0  0  0  0  0  0
  -44.8262   58.9757   66.6375 C   0  0  0  0  0  0  0  0  0  0  0  0
  -46.2800   59.3904   66.7861 C   0  0  0  0  0  0  0  0  0  0  0  0
  -47.2231   58.4236   66.1052 C   0  0  0  0  0  0  0  0  0  0  0  0
  -47.8695   58.9516   64.8406 C   0  0  0  0  0  0  0  0  0  0  0  0
  -48.8816   60.0064   65.0755 C   0  0  0  0  0  0  0  0  0  0  0  0
  -50.1308   59.9894   64.6586 C   0  0  0  0  0  0  0  0  0  0  0  0
  -50.8148   58.8991   63.8996 C   0  0  0  0  0  0  0  0  0  0  0  0
  -50.7328   59.1722   62.3969 C   0  0  0  0  0  0  0  0  0  0  0  0
  -49.8589   58.2098   61.6060 C   0  0  0  0  0  0  0  0  0  0  0  0
  -50.5243   57.5930   60.3816 C   0  0  0  0  0  0  0  0  0  0  0  0
  -49.7790   57.8681   59.0797 C   0  0  0  0  0  0  0  0  0  0  0  0
  -48.6602   56.8789   58.7939 C   0  0  0  0  0  0  0  0  0  0  0  0
  -47.9749   57.0424   57.4455 C   0  0  0  0  0  0  0  0  0  0  0  0
  -46.9401   55.9901   57.1899 C   0  0  0  0  0  0  0  0  0  0  0  0
  -41.6114   56.6311   62.9039 O   0  0  0  0  0  0  0  0  0  0  0  0
  -42.2632   57.7656   62.2916 C   0  0  0  0  0  0  0  0  0  0  0  0
  -41.9244   57.8783   60.8203 C   0  0  0  0  0  0  0  0  0  0  0  0
  -41.8430   59.2511   60.4138 O   0  0  0  0  0  0  0  0  0  0  0  0
  -41.1209   59.6876   60.8921 H   0  0  0  0  0  0  0  0  0  0  0  0
  -40.6370   57.1718   60.4656 C   0  0  0  0  0  0  0  0  0  0  0  0
  -39.4923   57.7851   61.1066 O   0  0  0  0  0  0  0  0  0  0  0  0
  -38.4345   58.8839   60.6068 P   0  0  0  0  0  0  0  0  0  0  0  0
  -39.1671   60.2156   60.4511 O   0  0  0  0  0  0  0  0  0  0  0  0
  -37.9157   58.4747   59.2834 O   0  0  0  0  0  0  0  0  0  0  0  0
  -38.6554   58.3682   58.6649 H   0  0  0  0  0  0  0  0  0  0  0  0
  -37.2099   59.0759   61.6879 O   0  0  0  0  0  0  0  0  0  0  0  0
  -37.1481   58.4943   63.0186 C   0  0  0  0  0  0  0  0  0  0  0  0
  -37.2410   59.5765   64.0656 C   0  0  0  0  0  0  0  0  0  0  0  0
  -38.5571   59.6841   64.8132 N   0  0  0  0  0  0  0  0  0  0  0  0
  -38.3703   60.4238   66.0989 C   0  0  0  0  0  0  0  0  0  0  0  0
  -39.0498   58.3064   65.1129 C   0  0  0  0  0  0  0  0  0  0  0  0
  -39.5775   60.4075   63.9814 C   0  0  0  0  0  0  0  0  0  0  0  0
 34 33  1  0  0  0
 34 35  1  0  0  0
 34 36  1  0  0  0
 34 37  1  0  0  0
 22 23  1  0  0  0
 22 25  1  0  0  0
 22 21  1  0  0  0
 27 26  1  0  0  0
 27 28  2  0  0  0
 27 31  1  0  0  0
 27 29  1  0  0  0
 25 26  1  0  0  0
 32 33  1  0  0  0
 32 31  1  0  0  0
 20 21  1  0  0  0
 20  2  1  0  0  0
  1  2  2  0  0  0
  2  3  1  0  0  0
  3  4  1  0  0  0
  4  5  1  0  0  0
  5  6  1  0  0  0
  6  7  1  0  0  0
  7  8  1  0  0  0
  8  9  1  0  0  0
  9 10  1  0  0  0
 10 11  2  0  0  0
 11 12  1  0  0  0
 12 13  1  0  0  0
 13 14  1  0  0  0
 14 15  1  0  0  0
 15 16  1  0  0  0
 16 17  1  0  0  0
 17 18  1  0  0  0
 18 19  1  0  0  0
 23 24  1  0  0  0
 29 30  1  0  0  0
M  CHG 1  28  -1
M  END
> <minimizedAffinity>
-7.91061

> <CNNscore>
0.7160091996

> <CNNaffinity>
7.0120863914

> <CNN_VS>
5.0207185745

> <CNNaffinity_variance>
0.3055001199

$$$$



 37 36  0  0  0  0  0  0  0  0999 V2000
  -42.3764   55.6548   65.0523 O   0  0  0  0  0  0  0  0  0  0  0  0
  -42.6983   56.8064   64.8949 C   0  0  0  0  0  0  0  0  0  0  0  0
  -44.0938   57.3393   65.0072 C   0  0  0  0  0  0  0  0  0  0  0  0
  -44.5349   57.5653   66.4484 C   0  0  0  0  0  0  0  0  0  0  0  0
  -45.0685   58.9599   66.7274 C   0  0  0  0  0  0  0  0  0  0  0  0
  -46.2240   59.3565   65.8255 C   0  0  0  0  0  0  0  0  0  0  0  0
  -47.5820   59.1054   66.4582 C   0  0  0  0  0  0  0  0  0  0  0  0
  -48.3519   58.0154   65.7464 C   0  0  0  0  0  0  0  0  0  0  0  0
  -49.8572   58.1882   65.7609 C   0  0  0  0  0  0  0  0  0  0  0  0
  -50.3059   59.5854   65.5640 C   0  0  0  0  0  0  0  0  0  0  0  0
  -50.8174   60.0874   64.4590 C   0  0  0  0  0  0  0  0  0  0  0  0
  -51.0963   59.3626   63.1825 C   0  0  0  0  0  0  0  0  0  0  0  0
  -49.9549   59.5870   62.1893 C   0  0  0  0  0  0  0  0  0  0  0  0
  -50.1622   58.9795   60.8096 C   0  0  0  0  0  0  0  0  0  0  0  0
  -49.7377   57.5220   60.6770 C   0  0  0  0  0  0  0  0  0  0  0  0
  -48.9659   57.2264   59.3952 C   0  0  0  0  0  0  0  0  0  0  0  0
  -48.1751   55.9287   59.4419 C   0  0  0  0  0  0  0  0  0  0  0  0
  -46.9765   55.8622   58.5073 C   0  0  0  0  0  0  0  0  0  0  0  0
  -47.3680   55.6535   57.0767 C   0  0  0  0  0  0  0  0  0  0  0  0
  -41.8442   57.7925   64.6052 O   0  0  0  0  0  0  0  0  0  0  0  0
  -41.9377   58.4034   63.2995 C   0  0  0  0  0  0  0  0  0  0  0  0
  -41.7097   57.3955   62.1929 C   0  0  0  0  0  0  0  0  0  0  0  0
  -42.3623   57.8025   60.9826 O   0  0  0  0  0  0  0  0  0  0  0  0
  -41.9771   58.6370   60.6724 H   0  0  0  0  0  0  0  0  0  0  0  0
  -40.2434   57.1577   61.9179 C   0  0  0  0  0  0  0  0  0  0  0  0
  -39.4424   58.3254   62.2216 O   0  0  0  0  0  0  0  0  0  0  0  0
  -38.5418   59.2861   61.3041 P   0  0  0  0  0  0  0  0  0  0  0  0
  -39.4747   60.1354   60.4425 O   0  0  0  0  0  0  0  0  0  0  0  0
  -37.7113   58.4473   60.4124 O   0  0  0  0  0  0  0  0  0  0  0  0
  -38.2848   57.8683   59.8864 H   0  0  0  0  0  0  0  0  0  0  0  0
  -37.6061   60.2852   62.2158 O   0  0  0  0  0  0  0  0  0  0  0  0
  -37.4037   60.1889   63.6520 C   0  0  0  0  0  0  0  0  0  0  0  0
  -35.9428   59.9710   63.9594 C   0  0  0  0  0  0  0  0  0  0  0  0
  -35.4910   58.5307   64.1139 N   0  0  0  0  0  0  0  0  0  0  0  0
  -34.3057   58.4479   65.0212 C   0  0  0  0  0  0  0  0  0  0  0  0
  -35.1111   58.0027   62.7695 C   0  0  0  0  0  0  0  0  0  0  0  0
  -36.5976   57.6899   64.6840 C   0  0  0  0  0  0  0  0  0  0  0  0
 34 33  1  0  0  0
 34 35  1  0  0  0
 34 36  1  0  0  0
 34 37  1  0  0  0
 22 23  1  0  0  0
 22 25  1  0  0  0
 22 21  1  0  0  0
 27 26  1  0  0  0
 27 28  2  0  0  0
 27 31  1  0  0  0
 27 29  1  0  0  0
 25 26  1  0  0  0
 32 33  1  0  0  0
 32 31  1  0  0  0
 20 21  1  0  0  0
 20  2  1  0  0  0
  1  2  2  0  0  0
  2  3  1  0  0  0
  3  4  1  0  0  0
  4  5  1  0  0  0
  5  6  1  0  0  0
  6  7  1  0  0  0
  7  8  1  0  0  0
  8  9  1  0  0  0
  9 10  1  0  0  0
 10 11  2  0  0  0
 11 12  1  0  0  0
 12 13  1  0  0  0
 13 14  1  0  0  0
 14 15  1  0  0  0
 15 16  1  0  0  0
 16 17  1  0  0  0
 17 18  1  0  0  0
 18 19  1  0  0  0
 23 24  1  0  0  0
 29 30  1  0  0  0
M  CHG 1  28  -1
M  END
> <minimizedAffinity>
-7.99510

> <CNNscore>
0.7129640579

> <CNNaffinity>
6.7589316368

> <CNN_VS>
4.8188753128

> <CNNaffinity_variance>
0.3348063231

$$$$



 37 36  0  0  0  0  0  0  0  0999 V2000
  -42.7068   56.0415   65.4093 O   0  0  0  0  0  0  0  0  0  0  0  0
  -43.4874   56.9291   65.1699 C   0  0  0  0  0  0  0  0  0  0  0  0
  -44.9328   56.9414   65.5629 C   0  0  0  0  0  0  0  0  0  0  0  0
  -45.1889   57.6570   66.8839 C   0  0  0  0  0  0  0  0  0  0  0  0
  -46.2065   58.7816   66.7985 C   0  0  0  0  0  0  0  0  0  0  0  0
  -46.2481   59.4571   65.4391 C   0  0  0  0  0  0  0  0  0  0  0  0
  -47.6368   59.4636   64.8235 C   0  0  0  0  0  0  0  0  0  0  0  0
  -48.4034   58.1958   65.1279 C   0  0  0  0  0  0  0  0  0  0  0  0
  -49.8561   58.4071   65.5036 C   0  0  0  0  0  0  0  0  0  0  0  0
  -50.3694   59.7602   65.1911 C   0  0  0  0  0  0  0  0  0  0  0  0
  -50.9662   60.1248   64.0750 C   0  0  0  0  0  0  0  0  0  0  0  0
  -51.2943   59.2593   62.9020 C   0  0  0  0  0  0  0  0  0  0  0  0
  -50.1491   59.2898   61.8884 C   0  0  0  0  0  0  0  0  0  0  0  0
  -49.7488   57.9379   61.3161 C   0  0  0  0  0  0  0  0  0  0  0  0
  -50.1896   57.6908   59.8785 C   0  0  0  0  0  0  0  0  0  0  0  0
  -49.0287   57.4640   58.9157 C   0  0  0  0  0  0  0  0  0  0  0  0
  -48.1935   56.2360   59.2420 C   0  0  0  0  0  0  0  0  0  0  0  0
  -47.1647   55.8496   58.1901 C   0  0  0  0  0  0  0  0  0  0  0  0
  -47.4254   56.4901   56.8615 C   0  0  0  0  0  0  0  0  0  0  0  0
  -43.1707   58.0534   64.5208 O   0  0  0  0  0  0  0  0  0  0  0  0
  -42.3963   59.0457   65.2297 C   0  0  0  0  0  0  0  0  0  0  0  0
  -42.0895   60.2440   64.3566 C   0  0  0  0  0  0  0  0  0  0  0  0
  -41.0611   61.0562   64.9389 O   0  0  0  0  0  0  0  0  0  0  0  0
  -40.2387   60.5449   64.9958 H   0  0  0  0  0  0  0  0  0  0  0  0
  -41.6869   59.8522   62.9542 C   0  0  0  0  0  0  0  0  0  0  0  0
  -40.2785   60.0874   62.7130 O   0  0  0  0  0  0  0  0  0  0  0  0
  -39.3496   59.8556   61.4248 P   0  0  0  0  0  0  0  0  0  0  0  0
  -38.0910   60.7068   61.5842 O   0  0  0  0  0  0  0  0  0  0  0  0
  -40.0807   60.3169   60.2243 O   0  0  0  0  0  0  0  0  0  0  0  0
  -40.3299   61.2477   60.3353 H   0  0  0  0  0  0  0  0  0  0  0  0
  -38.9076   58.2783   61.2774 O   0  0  0  0  0  0  0  0  0  0  0  0
  -38.5010   57.4016   62.3633 C   0  0  0  0  0  0  0  0  0  0  0  0
  -37.0526   57.6401   62.7116 C   0  0  0  0  0  0  0  0  0  0  0  0
  -36.7602   58.0604   64.1401 N   0  0  0  0  0  0  0  0  0  0  0  0
  -38.0332   58.2884   64.8901 C   0  0  0  0  0  0  0  0  0  0  0  0
  -35.9783   59.3326   64.1128 C   0  0  0  0  0  0  0  0  0  0  0  0
  -35.9633   57.0018   64.8478 C   0  0  0  0  0  0  0  0  0  0  0  0
 34 33  1  0  0  0
 34 35  1  0  0  0
 34 36  1  0  0  0
 34 37  1  0  0  0
 22 23  1  0  0  0
 22 25  1  0  0  0
 22 21  1  0  0  0
 27 26  1  0  0  0
 27 28  2  0  0  0
 27 31  1  0  0  0
 27 29  1  0  0  0
 25 26  1  0  0  0
 32 33  1  0  0  0
 32 31  1  0  0  0
 20 21  1  0  0  0
 20  2  1  0  0  0
  1  2  2  0  0  0
  2  3  1  0  0  0
  3  4  1  0  0  0
  4  5  1  0  0  0
  5  6  1  0  0  0
  6  7  1  0  0  0
  7  8  1  0  0  0
  8  9  1  0  0  0
  9 10  1  0  0  0
 10 11  2  0  0  0
 11 12  1  0  0  0
 12 13  1  0  0  0
 13 14  1  0  0  0
 14 15  1  0  0  0
 15 16  1  0  0  0
 16 17  1  0  0  0
 17 18  1  0  0  0
 18 19  1  0  0  0
 23 24  1  0  0  0
 29 30  1  0  0  0
M  CHG 1  28  -1
M  END
> <minimizedAffinity>
-7.97805

> <CNNscore>
0.6993198395

> <CNNaffinity>
6.8242559433

> <CNN_VS>
4.7723374367

> <CNNaffinity_variance>
0.3218062222

$$$$



 37 36  0  0  0  0  0  0  0  0999 V2000
  -42.1974   55.9775   64.0457 O   0  0  0  0  0  0  0  0  0  0  0  0
  -42.1325   56.9959   64.6885 C   0  0  0  0  0  0  0  0  0  0  0  0
  -42.8300   57.2447   65.9906 C   0  0  0  0  0  0  0  0  0  0  0  0
  -44.3484   57.2697   65.8621 C   0  0  0  0  0  0  0  0  0  0  0  0
  -45.0147   58.4479   66.5515 C   0  0  0  0  0  0  0  0  0  0  0  0
  -44.7482   59.7776   65.8682 C   0  0  0  0  0  0  0  0  0  0  0  0
  -45.4443   59.9024   64.5238 C   0  0  0  0  0  0  0  0  0  0  0  0
  -46.9464   60.0080   64.6651 C   0  0  0  0  0  0  0  0  0  0  0  0
  -47.7245   58.8679   64.0402 C   0  0  0  0  0  0  0  0  0  0  0  0
  -48.9112   58.4487   64.8201 C   0  0  0  0  0  0  0  0  0  0  0  0
  -50.1274   58.9417   64.7073 C   0  0  0  0  0  0  0  0  0  0  0  0
  -50.5905   59.9929   63.7517 C   0  0  0  0  0  0  0  0  0  0  0  0
  -51.2602   59.3441   62.5392 C   0  0  0  0  0  0  0  0  0  0  0  0
  -50.6869   57.9983   62.1201 C   0  0  0  0  0  0  0  0  0  0  0  0
  -50.8330   57.6688   60.6395 C   0  0  0  0  0  0  0  0  0  0  0  0
  -49.4997   57.5211   59.9138 C   0  0  0  0  0  0  0  0  0  0  0  0
  -48.9282   56.1131   59.9633 C   0  0  0  0  0  0  0  0  0  0  0  0
  -47.6232   55.9127   59.2075 C   0  0  0  0  0  0  0  0  0  0  0  0
  -47.7480   56.2137   57.7455 C   0  0  0  0  0  0  0  0  0  0  0  0
  -41.4092   58.0625   64.3353 O   0  0  0  0  0  0  0  0  0  0  0  0
  -40.7813   58.8293   65.3863 C   0  0  0  0  0  0  0  0  0  0  0  0
  -39.8302   59.8673   64.8294 C   0  0  0  0  0  0  0  0  0  0  0  0
  -40.5447   61.0067   64.3316 O   0  0  0  0  0  0  0  0  0  0  0  0
  -41.0172   61.4363   65.0617 H   0  0  0  0  0  0  0  0  0  0  0  0
  -38.8066   60.3200   65.8442 C   0  0  0  0  0  0  0  0  0  0  0  0
  -38.0653   61.4752   65.3824 O   0  0  0  0  0  0  0  0  0  0  0  0
  -36.7741   62.2324   65.9615 P   0  0  0  0  0  0  0  0  0  0  0  0
  -36.6015   61.8305   67.4254 O   0  0  0  0  0  0  0  0  0  0  0  0
  -37.0125   63.6910   65.8990 O   0  0  0  0  0  0  0  0  0  0  0  0
  -37.8186   63.9084   66.3928 H   0  0  0  0  0  0  0  0  0  0  0  0
  -35.4133   61.8202   65.1348 O   0  0  0  0  0  0  0  0  0  0  0  0
  -35.3187   60.8022   64.1016 C   0  0  0  0  0  0  0  0  0  0  0  0
  -35.1280   59.4420   64.7257 C   0  0  0  0  0  0  0  0  0  0  0  0
  -35.3978   58.2441   63.8341 N   0  0  0  0  0  0  0  0  0  0  0  0
  -34.1592   57.8521   63.0944 C   0  0  0  0  0  0  0  0  0  0  0  0
  -36.4566   58.6124   62.8473 C   0  0  0  0  0  0  0  0  0  0  0  0
  -35.8651   57.0738   64.6518 C   0  0  0  0  0  0  0  0  0  0  0  0
 34 33  1  0  0  0
 34 35  1  0  0  0
 34 36  1  0  0  0
 34 37  1  0  0  0
 22 23  1  0  0  0
 22 25  1  0  0  0
 22 21  1  0  0  0
 27 26  1  0  0  0
 27 28  2  0  0  0
 27 31  1  0  0  0
 27 29  1  0  0  0
 25 26  1  0  0  0
 32 33  1  0  0  0
 32 31  1  0  0  0
 20 21  1  0  0  0
 20  2  1  0  0  0
  1  2  2  0  0  0
  2  3  1  0  0  0
  3  4  1  0  0  0
  4  5  1  0  0  0
  5  6  1  0  0  0
  6  7  1  0  0  0
  7  8  1  0  0  0
  8  9  1  0  0  0
  9 10  1  0  0  0
 10 11  2  0  0  0
 11 12  1  0  0  0
 12 13  1  0  0  0
 13 14  1  0  0  0
 14 15  1  0  0  0
 15 16  1  0  0  0
 16 17  1  0  0  0
 17 18  1  0  0  0
 18 19  1  0  0  0
 23 24  1  0  0  0
 29 30  1  0  0  0
M  CHG 1  28  -1
M  END
> <minimizedAffinity>
-7.97341

> <CNNscore>
0.6610451937

> <CNNaffinity>
6.6754860878

> <CNN_VS>
4.4127979279

> <CNNaffinity_variance>
0.0805536881

$$$$



 37 36  0  0  0  0  0  0  0  0999 V2000
  -41.9040   55.1095   64.6692 O   0  0  0  0  0  0  0  0  0  0  0  0
  -42.0817   56.3013   64.7215 C   0  0  0  0  0  0  0  0  0  0  0  0
  -42.9368   57.0066   65.7290 C   0  0  0  0  0  0  0  0  0  0  0  0
  -44.3272   57.3441   65.2040 C   0  0  0  0  0  0  0  0  0  0  0  0
  -45.1638   58.1896   66.1487 C   0  0  0  0  0  0  0  0  0  0  0  0
  -45.6048   59.5120   65.5464 C   0  0  0  0  0  0  0  0  0  0  0  0
  -47.0241   59.8936   65.9305 C   0  0  0  0  0  0  0  0  0  0  0  0
  -47.8136   58.7123   66.4488 C   0  0  0  0  0  0  0  0  0  0  0  0
  -48.7500   58.0818   65.4381 C   0  0  0  0  0  0  0  0  0  0  0  0
  -50.0808   58.7267   65.3644 C   0  0  0  0  0  0  0  0  0  0  0  0
  -50.4678   59.6059   64.4633 C   0  0  0  0  0  0  0  0  0  0  0  0
  -49.6783   60.1159   63.3018 C   0  0  0  0  0  0  0  0  0  0  0  0
  -50.3172   59.6589   61.9894 C   0  0  0  0  0  0  0  0  0  0  0  0
  -50.9888   58.2941   62.0317 C   0  0  0  0  0  0  0  0  0  0  0  0
  -50.8105   57.4491   60.7761 C   0  0  0  0  0  0  0  0  0  0  0  0
  -49.3518   57.2521   60.3765 C   0  0  0  0  0  0  0  0  0  0  0  0
  -49.0861   57.4800   58.8969 C   0  0  0  0  0  0  0  0  0  0  0  0
  -47.9899   56.6163   58.2914 C   0  0  0  0  0  0  0  0  0  0  0  0
  -47.6022   57.0541   56.9124 C   0  0  0  0  0  0  0  0  0  0  0  0
  -41.5245   57.1814   63.8845 O   0  0  0  0  0  0  0  0  0  0  0  0
  -40.8567   58.3270   64.4575 C   0  0  0  0  0  0  0  0  0  0  0  0
  -41.2582   59.6123   63.7655 C   0  0  0  0  0  0  0  0  0  0  0  0
  -41.8814   60.5196   64.6847 O   0  0  0  0  0  0  0  0  0  0  0  0
  -41.2456   60.7699   65.3732 H   0  0  0  0  0  0  0  0  0  0  0  0
  -40.0917   60.2990   63.0946 C   0  0  0  0  0  0  0  0  0  0  0  0
  -39.3144   61.0806   64.0339 O   0  0  0  0  0  0  0  0  0  0  0  0
  -37.8171   60.9245   64.5904 P   0  0  0  0  0  0  0  0  0  0  0  0
  -36.8505   61.3457   63.4848 O   0  0  0  0  0  0  0  0  0  0  0  0
  -37.5761   59.5001   64.9087 O   0  0  0  0  0  0  0  0  0  0  0  0
  -37.7325   58.9610   64.1176 H   0  0  0  0  0  0  0  0  0  0  0  0
  -37.5624   61.8755   65.9079 O   0  0  0  0  0  0  0  0  0  0  0  0
  -36.2758   62.3769   66.3618 C   0  0  0  0  0  0  0  0  0  0  0  0
  -35.9937   63.7241   65.7439 C   0  0  0  0  0  0  0  0  0  0  0  0
  -34.6100   63.9217   65.1532 N   0  0  0  0  0  0  0  0  0  0  0  0
  -33.7629   64.7469   66.0679 C   0  0  0  0  0  0  0  0  0  0  0  0
  -34.7459   64.6308   63.8458 C   0  0  0  0  0  0  0  0  0  0  0  0
  -33.9373   62.5967   64.9331 C   0  0  0  0  0  0  0  0  0  0  0  0
 34 33  1  0  0  0
 34 35  1  0  0  0
 34 36  1  0  0  0
 34 37  1  0  0  0
 22 23  1  0  0  0
 22 25  1  0  0  0
 22 21  1  0  0  0
 27 26  1  0  0  0
 27 28  2  0  0  0
 27 31  1  0  0  0
 27 29  1  0  0  0
 25 26  1  0  0  0
 32 33  1  0  0  0
 32 31  1  0  0  0
 20 21  1  0  0  0
 20  2  1  0  0  0
  1  2  2  0  0  0
  2  3  1  0  0  0
  3  4  1  0  0  0
  4  5  1  0  0  0
  5  6  1  0  0  0
  6  7  1  0  0  0
  7  8  1  0  0  0
  8  9  1  0  0  0
  9 10  1  0  0  0
 10 11  2  0  0  0
 11 12  1  0  0  0
 12 13  1  0  0  0
 13 14  1  0  0  0
 14 15  1  0  0  0
 15 16  1  0  0  0
 16 17  1  0  0  0
 17 18  1  0  0  0
 18 19  1  0  0  0
 23 24  1  0  0  0
 29 30  1  0  0  0
M  CHG 1  28  -1
M  END
> <minimizedAffinity>
-8.08624

> <CNNscore>
0.6488422751

> <CNNaffinity>
6.4256410599

> <CNN_VS>
4.1692276001

> <CNNaffinity_variance>
0.2941179276

$$$$



 37 36  0  0  0  0  0  0  0  0999 V2000
  -42.4267   60.7200   64.1764 O   0  0  0  0  0  0  0  0  0  0  0  0
  -42.5922   59.7807   64.9146 C   0  0  0  0  0  0  0  0  0  0  0  0
  -43.9203   59.2058   65.3013 C   0  0  0  0  0  0  0  0  0  0  0  0
  -44.9446   59.2518   64.1738 C   0  0  0  0  0  0  0  0  0  0  0  0
  -45.9100   60.4220   64.2537 C   0  0  0  0  0  0  0  0  0  0  0  0
  -47.3694   60.0024   64.2560 C   0  0  0  0  0  0  0  0  0  0  0  0
  -47.5814   58.6003   64.8008 C   0  0  0  0  0  0  0  0  0  0  0  0
  -48.6723   58.5521   65.8473 C   0  0  0  0  0  0  0  0  0  0  0  0
  -50.0809   58.4830   65.2933 C   0  0  0  0  0  0  0  0  0  0  0  0
  -50.7172   59.8053   65.0961 C   0  0  0  0  0  0  0  0  0  0  0  0
  -51.2880   60.2341   63.9893 C   0  0  0  0  0  0  0  0  0  0  0  0
  -51.4585   59.4802   62.7105 C   0  0  0  0  0  0  0  0  0  0  0  0
  -50.2046   59.6199   61.8457 C   0  0  0  0  0  0  0  0  0  0  0  0
  -49.6060   58.3119   61.3492 C   0  0  0  0  0  0  0  0  0  0  0  0
  -50.3231   57.6860   60.1591 C   0  0  0  0  0  0  0  0  0  0  0  0
  -49.4004   57.3808   58.9837 C   0  0  0  0  0  0  0  0  0  0  0  0
  -48.3192   56.3605   59.3027 C   0  0  0  0  0  0  0  0  0  0  0  0
  -47.3682   56.0400   58.1594 C   0  0  0  0  0  0  0  0  0  0  0  0
  -47.5187   56.9767   57.0003 C   0  0  0  0  0  0  0  0  0  0  0  0
  -41.6011   59.0972   65.4945 O   0  0  0  0  0  0  0  0  0  0  0  0
  -40.6637   59.8320   66.3118 C   0  0  0  0  0  0  0  0  0  0  0  0
  -39.3393   60.0280   65.6048 C   0  0  0  0  0  0  0  0  0  0  0  0
  -38.5660   61.0582   66.2352 O   0  0  0  0  0  0  0  0  0  0  0  0
  -38.3516   60.7919   67.1429 H   0  0  0  0  0  0  0  0  0  0  0  0
  -38.5241   58.7579   65.5372 C   0  0  0  0  0  0  0  0  0  0  0  0
  -37.2165   58.9877   64.9587 O   0  0  0  0  0  0  0  0  0  0  0  0
  -36.7278   59.2061   63.4457 P   0  0  0  0  0  0  0  0  0  0  0  0
  -35.2404   58.8653   63.3704 O   0  0  0  0  0  0  0  0  0  0  0  0
  -36.9023   60.6320   63.0926 O   0  0  0  0  0  0  0  0  0  0  0  0
  -36.4104   61.1833   63.7212 H   0  0  0  0  0  0  0  0  0  0  0  0
  -37.5477   58.2345   62.4021 O   0  0  0  0  0  0  0  0  0  0  0  0
  -38.5592   58.6656   61.4515 C   0  0  0  0  0  0  0  0  0  0  0  0
  -39.9171   58.6870   62.1087 C   0  0  0  0  0  0  0  0  0  0  0  0
  -40.9468   57.7129   61.5671 N   0  0  0  0  0  0  0  0  0  0  0  0
  -40.5838   57.2832   60.1819 C   0  0  0  0  0  0  0  0  0  0  0  0
  -42.2756   58.3938   61.5316 C   0  0  0  0  0  0  0  0  0  0  0  0
  -41.0341   56.4969   62.4447 C   0  0  0  0  0  0  0  0  0  0  0  0
 34 33  1  0  0  0
 34 35  1  0  0  0
 34 36  1  0  0  0
 34 37  1  0  0  0
 22 23  1  0  0  0
 22 25  1  0  0  0
 22 21  1  0  0  0
 27 26  1  0  0  0
 27 28  2  0  0  0
 27 31  1  0  0  0
 27 29  1  0  0  0
 25 26  1  0  0  0
 32 33  1  0  0  0
 32 31  1  0  0  0
 20 21  1  0  0  0
 20  2  1  0  0  0
  1  2  2  0  0  0
  2  3  1  0  0  0
  3  4  1  0  0  0
  4  5  1  0  0  0
  5  6  1  0  0  0
  6  7  1  0  0  0
  7  8  1  0  0  0
  8  9  1  0  0  0
  9 10  1  0  0  0
 10 11  2  0  0  0
 11 12  1  0  0  0
 12 13  1  0  0  0
 13 14  1  0  0  0
 14 15  1  0  0  0
 15 16  1  0  0  0
 16 17  1  0  0  0
 17 18  1  0  0  0
 18 19  1  0  0  0
 23 24  1  0  0  0
 29 30  1  0  0  0
M  CHG 1  28  -1
M  END
> <minimizedAffinity>
-8.02172

> <CNNscore>
0.6455667615

> <CNNaffinity>
6.9450674057

> <CNN_VS>
4.4835047722

> <CNNaffinity_variance>
0.1974395066

$$$$



 37 36  0  0  0  0  0  0  0  0999 V2000
  -42.6393   59.7057   63.9911 O   0  0  0  0  0  0  0  0  0  0  0  0
  -42.8192   59.1748   65.0589 C   0  0  0  0  0  0  0  0  0  0  0  0
  -43.4252   59.8305   66.2617 C   0  0  0  0  0  0  0  0  0  0  0  0
  -44.6384   59.0843   66.8039 C   0  0  0  0  0  0  0  0  0  0  0  0
  -45.9567   59.4875   66.1660 C   0  0  0  0  0  0  0  0  0  0  0  0
  -46.2330   58.7803   64.8509 C   0  0  0  0  0  0  0  0  0  0  0  0
  -47.7081   58.7582   64.4890 C   0  0  0  0  0  0  0  0  0  0  0  0
  -48.5782   58.3560   65.6590 C   0  0  0  0  0  0  0  0  0  0  0  0
  -50.0686   58.4663   65.4093 C   0  0  0  0  0  0  0  0  0  0  0  0
  -50.4894   59.7639   64.8335 C   0  0  0  0  0  0  0  0  0  0  0  0
  -51.0236   59.9477   63.6437 C   0  0  0  0  0  0  0  0  0  0  0  0
  -51.3606   58.8997   62.6334 C   0  0  0  0  0  0  0  0  0  0  0  0
  -50.1811   58.6854   61.6834 C   0  0  0  0  0  0  0  0  0  0  0  0
  -50.5040   57.9286   60.4034 C   0  0  0  0  0  0  0  0  0  0  0  0
  -49.6326   56.7064   60.1403 C   0  0  0  0  0  0  0  0  0  0  0  0
  -48.3929   57.0104   59.3055 C   0  0  0  0  0  0  0  0  0  0  0  0
  -47.7047   55.7704   58.7574 C   0  0  0  0  0  0  0  0  0  0  0  0
  -47.4448   55.7785   57.2584 C   0  0  0  0  0  0  0  0  0  0  0  0
  -47.5439   57.1482   56.6603 C   0  0  0  0  0  0  0  0  0  0  0  0
  -42.5117   57.9022   65.3265 O   0  0  0  0  0  0  0  0  0  0  0  0
  -42.7996   56.9120   64.3149 C   0  0  0  0  0  0  0  0  0  0  0  0
  -41.6046   56.0217   64.0476 C   0  0  0  0  0  0  0  0  0  0  0  0
  -41.9047   54.6520   64.3479 O   0  0  0  0  0  0  0  0  0  0  0  0
  -42.6116   54.3398   63.7616 H   0  0  0  0  0  0  0  0  0  0  0  0
  -41.1093   56.1273   62.6242 C   0  0  0  0  0  0  0  0  0  0  0  0
  -40.7194   57.4812   62.2890 O   0  0  0  0  0  0  0  0  0  0  0  0
  -40.7299   58.2976   60.9072 P   0  0  0  0  0  0  0  0  0  0  0  0
  -42.1705   58.3640   60.4028 O   0  0  0  0  0  0  0  0  0  0  0  0
  -39.9174   57.5602   59.9150 O   0  0  0  0  0  0  0  0  0  0  0  0
  -40.2680   56.6615   59.8139 H   0  0  0  0  0  0  0  0  0  0  0  0
  -40.1679   59.8301   61.1093 O   0  0  0  0  0  0  0  0  0  0  0  0
  -38.7742   60.2143   61.2602 C   0  0  0  0  0  0  0  0  0  0  0  0
  -38.5123   60.6837   62.6699 C   0  0  0  0  0  0  0  0  0  0  0  0
  -37.8192   59.6993   63.5935 N   0  0  0  0  0  0  0  0  0  0  0  0
  -36.6973   60.3660   64.3229 C   0  0  0  0  0  0  0  0  0  0  0  0
  -37.2672   58.5811   62.7716 C   0  0  0  0  0  0  0  0  0  0  0  0
  -38.7898   59.1465   64.5979 C   0  0  0  0  0  0  0  0  0  0  0  0
 34 33  1  0  0  0
 34 35  1  0  0  0
 34 36  1  0  0  0
 34 37  1  0  0  0
 22 23  1  0  0  0
 22 25  1  0  0  0
 22 21  1  0  0  0
 27 26  1  0  0  0
 27 28  2  0  0  0
 27 31  1  0  0  0
 27 29  1  0  0  0
 25 26  1  0  0  0
 32 33  1  0  0  0
 32 31  1  0  0  0
 20 21  1  0  0  0
 20  2  1  0  0  0
  1  2  2  0  0  0
  2  3  1  0  0  0
  3  4  1  0  0  0
  4  5  1  0  0  0
  5  6  1  0  0  0
  6  7  1  0  0  0
  7  8  1  0  0  0
  8  9  1  0  0  0
  9 10  1  0  0  0
 10 11  2  0  0  0
 11 12  1  0  0  0
 12 13  1  0  0  0
 13 14  1  0  0  0
 14 15  1  0  0  0
 15 16  1  0  0  0
 16 17  1  0  0  0
 17 18  1  0  0  0
 18 19  1  0  0  0
 23 24  1  0  0  0
 29 30  1  0  0  0
M  CHG 1  28  -1
M  END
> <minimizedAffinity>
-7.94850

> <CNNscore>
0.6366075277

> <CNNaffinity>
7.0433297157

> <CNN_VS>
4.4838366508

> <CNNaffinity_variance>
0.3177812696

$$$$
