


 19 18  0  0  0  0  0  0  0  0999 V2000
  -47.7724   58.7820   65.9275 C   0  0  0  0  0  0  0  0  0  0  0  0
  -46.6498   59.8073   66.0071 C   0  0  0  0  0  0  0  0  0  0  0  0
  -45.3509   59.2955   65.4078 C   0  0  0  0  0  0  0  0  0  0  0  0
  -44.4104   60.4558   65.1263 C   0  0  0  0  0  0  0  0  0  0  0  0
  -42.9775   59.9633   65.2200 C   0  0  0  0  0  0  0  0  0  0  0  0
  -42.1652   60.7786   66.2135 C   0  0  0  0  0  0  0  0  0  0  0  0
  -41.0617   61.4975   65.4780 C   0  0  0  0  0  0  0  0  0  0  0  0
  -40.7543   61.1518   64.3205 O   0  0  0  0  0  0  0  0  0  0  0  0
  -40.4370   62.4401   66.0091 O   0  0  0  0  0  0  0  0  0  0  0  0
  -40.6533   62.7146   66.8785 H   0  0  0  0  0  0  0  0  0  0  0  0
  -48.1655   58.6581   64.4626 C   0  0  0  0  0  0  0  0  0  0  0  0
  -49.3519   59.5293   64.1263 C   0  0  0  0  0  0  0  0  0  0  0  0
  -50.2411   59.1520   63.0162 C   0  0  0  0  0  0  0  0  0  0  0  0
  -49.8288   58.0277   62.0995 C   0  0  0  0  0  0  0  0  0  0  0  0
  -49.9336   58.4554   60.6397 C   0  0  0  0  0  0  0  0  0  0  0  0
  -49.7559   57.2478   59.7196 C   0  0  0  0  0  0  0  0  0  0  0  0
  -48.8815   57.5808   58.5117 C   0  0  0  0  0  0  0  0  0  0  0  0
  -47.4727   58.0108   58.9283 C   0  0  0  0  0  0  0  0  0  0  0  0
  -46.6517   58.5629   57.7659 C   0  0  0  0  0  0  0  0  0  0  0  0
  7  8  2  0  0  0
  7  6  1  0  0  0
  7  9  1  0  0  0
  6  5  1  0  0  0
  5  4  1  0  0  0
  4  3  1  0  0  0
  3  2  1  0  0  0
  2  1  1  0  0  0
  1 11  1  0  0  0
 11 12  1  0  0  0
 12 13  2  0  0  0
 13 14  1  0  0  0
 14 15  1  0  0  0
 15 16  1  0  0  0
 16 17  1  0  0  0
 17 18  1  0  0  0
 18 19  1  0  0  0
  9 10  1  0  0  0
M  END
> <minimizedAffinity>
-6.89496

> <CNNscore>
0.9219756126

> <CNNaffinity>
6.7937011719

> <CNN_VS>
6.2636265755

> <CNNaffinity_variance>
1.0943529606

$$$$



 19 18  0  0  0  0  0  0  0  0999 V2000
  -45.5863   59.5105   66.9190 C   0  0  0  0  0  0  0  0  0  0  0  0
  -44.1617   59.5939   66.3886 C   0  0  0  0  0  0  0  0  0  0  0  0
  -43.6069   58.2355   65.9949 C   0  0  0  0  0  0  0  0  0  0  0  0
  -42.1606   58.3694   65.5476 C   0  0  0  0  0  0  0  0  0  0  0  0
  -41.4415   59.3247   66.4829 C   0  0  0  0  0  0  0  0  0  0  0  0
  -40.2928   60.0372   65.7867 C   0  0  0  0  0  0  0  0  0  0  0  0
  -40.7465   61.4130   65.3662 C   0  0  0  0  0  0  0  0  0  0  0  0
  -41.4909   61.5496   64.3758 O   0  0  0  0  0  0  0  0  0  0  0  0
  -40.3860   62.4327   65.9917 O   0  0  0  0  0  0  0  0  0  0  0  0
  -39.8266   62.3506   66.7389 H   0  0  0  0  0  0  0  0  0  0  0  0
  -46.5083   59.3875   65.7146 C   0  0  0  0  0  0  0  0  0  0  0  0
  -47.2497   60.6747   65.4440 C   0  0  0  0  0  0  0  0  0  0  0  0
  -48.7120   60.7199   65.6020 C   0  0  0  0  0  0  0  0  0  0  0  0
  -49.4640   59.4304   65.8162 C   0  0  0  0  0  0  0  0  0  0  0  0
  -49.9624   58.8691   64.4890 C   0  0  0  0  0  0  0  0  0  0  0  0
  -50.5805   59.9813   63.6419 C   0  0  0  0  0  0  0  0  0  0  0  0
  -50.5535   59.6397   62.1529 C   0  0  0  0  0  0  0  0  0  0  0  0
  -50.1740   58.1767   61.9099 C   0  0  0  0  0  0  0  0  0  0  0  0
  -51.0366   57.5084   60.8425 C   0  0  0  0  0  0  0  0  0  0  0  0
  7  8  2  0  0  0
  7  6  1  0  0  0
  7  9  1  0  0  0
  6  5  1  0  0  0
  5  4  1  0  0  0
  4  3  1  0  0  0
  3  2  1  0  0  0
  2  1  1  0  0  0
  1 11  1  0  0  0
 11 12  1  0  0  0
 12 13  2  0  0  0
 13 14  1  0  0  0
 14 15  1  0  0  0
 15 16  1  0  0  0
 16 17  1  0  0  0
 17 18  1  0  0  0
 18 19  1  0  0  0
  9 10  1  0  0  0
M  END
> <minimizedAffinity>
-6.68018

> <CNNscore>
0.8365164399

> <CNNaffinity>
6.3240461349

> <CNN_VS>
5.2901687622

> <CNNaffinity_variance>
0.4047658443

$$$$



 19 18  0  0  0  0  0  0  0  0999 V2000
  -49.4921   58.4878   65.3123 C   0  0  0  0  0  0  0  0  0  0  0  0
  -49.5672   59.9875   65.5630 C   0  0  0  0  0  0  0  0  0  0  0  0
  -48.4166   60.4930   66.4166 C   0  0  0  0  0  0  0  0  0  0  0  0
  -47.1624   60.6416   65.5711 C   0  0  0  0  0  0  0  0  0  0  0  0
  -46.0689   59.7635   66.1523 C   0  0  0  0  0  0  0  0  0  0  0  0
  -45.4224   58.8904   65.0885 C   0  0  0  0  0  0  0  0  0  0  0  0
  -43.9239   58.9349   65.2560 C   0  0  0  0  0  0  0  0  0  0  0  0
  -43.3875   58.3734   66.2310 O   0  0  0  0  0  0  0  0  0  0  0  0
  -43.1982   59.5324   64.4331 O   0  0  0  0  0  0  0  0  0  0  0  0
  -43.5826   59.9606   63.6936 H   0  0  0  0  0  0  0  0  0  0  0  0
  -49.2169   58.2930   63.8284 C   0  0  0  0  0  0  0  0  0  0  0  0
  -50.3658   58.7791   62.9779 C   0  0  0  0  0  0  0  0  0  0  0  0
  -50.3333   58.5701   61.5216 C   0  0  0  0  0  0  0  0  0  0  0  0
  -49.0603   58.0743   60.8829 C   0  0  0  0  0  0  0  0  0  0  0  0
  -49.3293   56.8380   60.0320 C   0  0  0  0  0  0  0  0  0  0  0  0
  -48.2061   56.6406   59.0141 C   0  0  0  0  0  0  0  0  0  0  0  0
  -47.2680   57.8457   58.9660 C   0  0  0  0  0  0  0  0  0  0  0  0
  -46.9567   58.2694   57.5284 C   0  0  0  0  0  0  0  0  0  0  0  0
  -47.6220   57.3729   56.4873 C   0  0  0  0  0  0  0  0  0  0  0  0
  7  8  2  0  0  0
  7  6  1  0  0  0
  7  9  1  0  0  0
  6  5  1  0  0  0
  5  4  1  0  0  0
  4  3  1  0  0  0
  3  2  1  0  0  0
  2  1  1  0  0  0
  1 11  1  0  0  0
 11 12  1  0  0  0
 12 13  2  0  0  0
 13 14  1  0  0  0
 14 15  1  0  0  0
 15 16  1  0  0  0
 16 17  1  0  0  0
 17 18  1  0  0  0
 18 19  1  0  0  0
  9 10  1  0  0  0
M  END
> <minimizedAffinity>
-6.92910

> <CNNscore>
0.7167785168

> <CNNaffinity>
6.3671231270

> <CNN_VS>
4.5638170242

> <CNNaffinity_variance>
0.3506950736

$$$$



 19 18  0  0  0  0  0  0  0  0999 V2000
  -47.1341   60.8446   65.4167 C   0  0  0  0  0  0  0  0  0  0  0  0
  -46.5626   59.8600   66.4276 C   0  0  0  0  0  0  0  0  0  0  0  0
  -45.0725   59.6316   66.2390 C   0  0  0  0  0  0  0  0  0  0  0  0
  -44.5417   60.5237   65.1288 C   0  0  0  0  0  0  0  0  0  0  0  0
  -43.2080   59.9774   64.6523 C   0  0  0  0  0  0  0  0  0  0  0  0
  -42.1573   61.0710   64.5440 C   0  0  0  0  0  0  0  0  0  0  0  0
  -41.3139   61.0721   65.7948 C   0  0  0  0  0  0  0  0  0  0  0  0
  -40.5101   62.0012   66.0052 O   0  0  0  0  0  0  0  0  0  0  0  0
  -41.3992   60.1502   66.6336 O   0  0  0  0  0  0  0  0  0  0  0  0
  -41.9976   59.4429   66.4933 H   0  0  0  0  0  0  0  0  0  0  0  0
  -48.6412   60.8787   65.6244 C   0  0  0  0  0  0  0  0  0  0  0  0
  -49.2235   59.4892   65.7255 C   0  0  0  0  0  0  0  0  0  0  0  0
  -50.2201   59.0437   64.7389 C   0  0  0  0  0  0  0  0  0  0  0  0
  -50.8018   60.0529   63.7810 C   0  0  0  0  0  0  0  0  0  0  0  0
  -50.2496   59.8439   62.3753 C   0  0  0  0  0  0  0  0  0  0  0  0
  -49.8897   58.3739   62.1604 C   0  0  0  0  0  0  0  0  0  0  0  0
  -50.7184   57.7465   61.0405 C   0  0  0  0  0  0  0  0  0  0  0  0
  -50.2055   58.1508   59.6560 C   0  0  0  0  0  0  0  0  0  0  0  0
  -48.6929   58.0007   59.5154 C   0  0  0  0  0  0  0  0  0  0  0  0
  7  8  2  0  0  0
  7  6  1  0  0  0
  7  9  1  0  0  0
  6  5  1  0  0  0
  5  4  1  0  0  0
  4  3  1  0  0  0
  3  2  1  0  0  0
  2  1  1  0  0  0
  1 11  1  0  0  0
 11 12  1  0  0  0
 12 13  2  0  0  0
 13 14  1  0  0  0
 14 15  1  0  0  0
 15 16  1  0  0  0
 16 17  1  0  0  0
 17 18  1  0  0  0
 18 19  1  0  0  0
  9 10  1  0  0  0
M  END
> <minimizedAffinity>
-6.72101

> <CNNscore>
0.7102400064

> <CNNaffinity>
6.1615285873

> <CNN_VS>
4.3761639595

> <CNNaffinity_variance>
0.3162623346

$$$$



 19 18  0  0  0  0  0  0  0  0999 V2000
  -50.5087   59.4729   63.3233 C   0  0  0  0  0  0  0  0  0  0  0  0
  -50.3061   59.2290   61.8342 C   0  0  0  0  0  0  0  0  0  0  0  0
  -50.6243   57.7994   61.4302 C   0  0  0  0  0  0  0  0  0  0  0  0
  -50.2909   57.5826   59.9633 C   0  0  0  0  0  0  0  0  0  0  0  0
  -49.1260   58.4793   59.5845 C   0  0  0  0  0  0  0  0  0  0  0  0
  -47.8338   57.6920   59.4361 C   0  0  0  0  0  0  0  0  0  0  0  0
  -47.9258   56.8170   58.2108 C   0  0  0  0  0  0  0  0  0  0  0  0
  -48.1229   57.3287   57.0914 O   0  0  0  0  0  0  0  0  0  0  0  0
  -47.8122   55.5755   58.2920 O   0  0  0  0  0  0  0  0  0  0  0  0
  -47.6637   55.1721   59.1246 H   0  0  0  0  0  0  0  0  0  0  0  0
  -49.1296   59.6483   63.9422 C   0  0  0  0  0  0  0  0  0  0  0  0
  -48.6086   58.3555   64.5227 C   0  0  0  0  0  0  0  0  0  0  0  0
  -47.7443   58.3879   65.7132 C   0  0  0  0  0  0  0  0  0  0  0  0
  -47.2179   59.7154   66.1981 C   0  0  0  0  0  0  0  0  0  0  0  0
  -45.7049   59.6627   66.3792 C   0  0  0  0  0  0  0  0  0  0  0  0
  -45.0038   60.2532   65.1560 C   0  0  0  0  0  0  0  0  0  0  0  0
  -43.5139   60.4765   65.4108 C   0  0  0  0  0  0  0  0  0  0  0  0
  -43.1380   60.2074   66.8701 C   0  0  0  0  0  0  0  0  0  0  0  0
  -41.8247   59.4430   67.0143 C   0  0  0  0  0  0  0  0  0  0  0  0
  7  8  2  0  0  0
  7  6  1  0  0  0
  7  9  1  0  0  0
  6  5  1  0  0  0
  5  4  1  0  0  0
  4  3  1  0  0  0
  3  2  1  0  0  0
  2  1  1  0  0  0
  1 11  1  0  0  0
 11 12  1  0  0  0
 12 13  2  0  0  0
 13 14  1  0  0  0
 14 15  1  0  0  0
 15 16  1  0  0  0
 16 17  1  0  0  0
 17 18  1  0  0  0
 18 19  1  0  0  0
  9 10  1  0  0  0
M  END
> <minimizedAffinity>
-6.86823

> <CNNscore>
0.6415210962

> <CNNaffinity>
6.3516969681

> <CNN_VS>
4.0747475624

> <CNNaffinity_variance>
0.3261817694

$$$$



 19 18  0  0  0  0  0  0  0  0999 V2000
  -45.4004   59.0641   66.2190 C   0  0  0  0  0  0  0  0  0  0  0  0
  -43.9962   59.6523   66.2245 C   0  0  0  0  0  0  0  0  0  0  0  0
  -43.2259   59.3310   64.9550 C   0  0  0  0  0  0  0  0  0  0  0  0
  -42.1831   60.4043   64.6887 C   0  0  0  0  0  0  0  0  0  0  0  0
  -40.8753   59.7366   64.3037 C   0  0  0  0  0  0  0  0  0  0  0  0
  -39.7463   60.7458   64.1668 C   0  0  0  0  0  0  0  0  0  0  0  0
  -38.4839   60.0240   63.7658 C   0  0  0  0  0  0  0  0  0  0  0  0
  -37.6484   59.6990   64.6318 O   0  0  0  0  0  0  0  0  0  0  0  0
  -38.2499   59.7443   62.5708 O   0  0  0  0  0  0  0  0  0  0  0  0
  -38.8658   59.9803   61.9052 H   0  0  0  0  0  0  0  0  0  0  0  0
  -46.2800   60.0069   65.4109 C   0  0  0  0  0  0  0  0  0  0  0  0
  -47.5867   60.2914   66.1119 C   0  0  0  0  0  0  0  0  0  0  0  0
  -48.7570   59.4405   65.8441 C   0  0  0  0  0  0  0  0  0  0  0  0
  -48.6916   58.4419   64.7159 C   0  0  0  0  0  0  0  0  0  0  0  0
  -48.9937   59.1146   63.3813 C   0  0  0  0  0  0  0  0  0  0  0  0
  -50.4093   58.7673   62.9212 C   0  0  0  0  0  0  0  0  0  0  0  0
  -50.4008   57.9663   61.6201 C   0  0  0  0  0  0  0  0  0  0  0  0
  -49.7836   58.7598   60.4656 C   0  0  0  0  0  0  0  0  0  0  0  0
  -48.6493   58.0119   59.7699 C   0  0  0  0  0  0  0  0  0  0  0  0
  7  8  2  0  0  0
  7  6  1  0  0  0
  7  9  1  0  0  0
  6  5  1  0  0  0
  5  4  1  0  0  0
  4  3  1  0  0  0
  3  2  1  0  0  0
  2  1  1  0  0  0
  1 11  1  0  0  0
 11 12  1  0  0  0
 12 13  2  0  0  0
 13 14  1  0  0  0
 14 15  1  0  0  0
 15 16  1  0  0  0
 16 17  1  0  0  0
 17 18  1  0  0  0
 18 19  1  0  0  0
  9 10  1  0  0  0
M  END
> <minimizedAffinity>
-5.63058

> <CNNscore>
0.6363357306

> <CNNaffinity>
6.3006944656

> <CNN_VS>
4.0093569756

> <CNNaffinity_variance>
1.4906816483

$$$$



 19 18  0  0  0  0  0  0  0  0999 V2000
  -48.5235   61.4209   65.0878 C   0  0  0  0  0  0  0  0  0  0  0  0
  -49.0878   60.8389   63.7992 C   0  0  0  0  0  0  0  0  0  0  0  0
  -50.0748   59.7121   64.0528 C   0  0  0  0  0  0  0  0  0  0  0  0
  -49.8237   58.5674   63.0851 C   0  0  0  0  0  0  0  0  0  0  0  0
  -50.4511   58.9077   61.7452 C   0  0  0  0  0  0  0  0  0  0  0  0
  -51.0081   57.6732   61.0541 C   0  0  0  0  0  0  0  0  0  0  0  0
  -50.1148   57.3107   59.8938 C   0  0  0  0  0  0  0  0  0  0  0  0
  -49.2809   56.3917   60.0111 O   0  0  0  0  0  0  0  0  0  0  0  0
  -50.1881   57.9200   58.8056 O   0  0  0  0  0  0  0  0  0  0  0  0
  -50.8086   58.6138   58.6979 H   0  0  0  0  0  0  0  0  0  0  0  0
  -47.1568   60.7884   65.3065 C   0  0  0  0  0  0  0  0  0  0  0  0
  -47.1295   59.9314   66.5493 C   0  0  0  0  0  0  0  0  0  0  0  0
  -45.8964   59.2157   66.9134 C   0  0  0  0  0  0  0  0  0  0  0  0
  -44.7566   59.1750   65.9266 C   0  0  0  0  0  0  0  0  0  0  0  0
  -44.0991   57.7994   65.9177 C   0  0  0  0  0  0  0  0  0  0  0  0
  -42.6223   57.9203   65.5422 C   0  0  0  0  0  0  0  0  0  0  0  0
  -42.1297   59.3633   65.6414 C   0  0  0  0  0  0  0  0  0  0  0  0
  -40.6022   59.4417   65.7043 C   0  0  0  0  0  0  0  0  0  0  0  0
  -39.9181   58.5365   64.6832 C   0  0  0  0  0  0  0  0  0  0  0  0
  7  8  2  0  0  0
  7  6  1  0  0  0
  7  9  1  0  0  0
  6  5  1  0  0  0
  5  4  1  0  0  0
  4  3  1  0  0  0
  3  2  1  0  0  0
  2  1  1  0  0  0
  1 11  1  0  0  0
 11 12  1  0  0  0
 12 13  2  0  0  0
 13 14  1  0  0  0
 14 15  1  0  0  0
 15 16  1  0  0  0
 16 17  1  0  0  0
 17 18  1  0  0  0
 18 19  1  0  0  0
  9 10  1  0  0  0
M  END
> <minimizedAffinity>
-6.62120

> <CNNscore>
0.6135219932

> <CNNaffinity>
6.1561331749

> <CNN_VS>
3.7769231796

> <CNNaffinity_variance>
0.5602876544

$$$$



 19 18  0  0  0  0  0  0  0  0999 V2000
  -48.0703   61.1457   64.7011 C   0  0  0  0  0  0  0  0  0  0  0  0
  -48.1583   60.9101   66.2026 C   0  0  0  0  0  0  0  0  0  0  0  0
  -47.4196   59.6563   66.6391 C   0  0  0  0  0  0  0  0  0  0  0  0
  -45.9822   59.6965   66.1470 C   0  0  0  0  0  0  0  0  0  0  0  0
  -45.7659   58.5612   65.1627 C   0  0  0  0  0  0  0  0  0  0  0  0
  -44.6818   57.6052   65.6345 C   0  0  0  0  0  0  0  0  0  0  0  0
  -43.3315   58.1692   65.2682 C   0  0  0  0  0  0  0  0  0  0  0  0
  -42.2945   57.6625   65.7391 O   0  0  0  0  0  0  0  0  0  0  0  0
  -43.2259   59.1473   64.4981 O   0  0  0  0  0  0  0  0  0  0  0  0
  -43.9937   59.5419   64.1340 H   0  0  0  0  0  0  0  0  0  0  0  0
  -49.4784   61.0082   64.1408 C   0  0  0  0  0  0  0  0  0  0  0  0
  -50.1487   59.7419   64.6173 C   0  0  0  0  0  0  0  0  0  0  0  0
  -49.8774   58.4705   63.9279 C   0  0  0  0  0  0  0  0  0  0  0  0
  -49.1112   58.4926   62.6291 C   0  0  0  0  0  0  0  0  0  0  0  0
  -49.9437   57.8936   61.5009 C   0  0  0  0  0  0  0  0  0  0  0  0
  -49.8047   58.7375   60.2340 C   0  0  0  0  0  0  0  0  0  0  0  0
  -49.2359   57.9242   59.0722 C   0  0  0  0  0  0  0  0  0  0  0  0
  -47.7366   58.1696   58.8841 C   0  0  0  0  0  0  0  0  0  0  0  0
  -47.2731   57.9436   57.4474 C   0  0  0  0  0  0  0  0  0  0  0  0
  7  8  2  0  0  0
  7  6  1  0  0  0
  7  9  1  0  0  0
  6  5  1  0  0  0
  5  4  1  0  0  0
  4  3  1  0  0  0
  3  2  1  0  0  0
  2  1  1  0  0  0
  1 11  1  0  0  0
 11 12  1  0  0  0
 12 13  2  0  0  0
 13 14  1  0  0  0
 14 15  1  0  0  0
 15 16  1  0  0  0
 16 17  1  0  0  0
 17 18  1  0  0  0
 18 19  1  0  0  0
  9 10  1  0  0  0
M  END
> <minimizedAffinity>
-6.61804

> <CNNscore>
0.5729343891

> <CNNaffinity>
6.2895660400

> <CNN_VS>
3.6035087109

> <CNNaffinity_variance>
0.2712267041

$$$$



 19 18  0  0  0  0  0  0  0  0999 V2000
  -50.6520   60.0734   64.0903 C   0  0  0  0  0  0  0  0  0  0  0  0
  -50.9863   59.6679   62.6614 C   0  0  0  0  0  0  0  0  0  0  0  0
  -50.2176   58.4374   62.2109 C   0  0  0  0  0  0  0  0  0  0  0  0
  -50.9342   57.7675   61.0499 C   0  0  0  0  0  0  0  0  0  0  0  0
  -50.1115   57.9552   59.7880 C   0  0  0  0  0  0  0  0  0  0  0  0
  -48.6206   57.9764   60.0853 C   0  0  0  0  0  0  0  0  0  0  0  0
  -47.8564   57.9051   58.7867 C   0  0  0  0  0  0  0  0  0  0  0  0
  -48.4340   57.5497   57.7409 O   0  0  0  0  0  0  0  0  0  0  0  0
  -46.6418   58.1930   58.7338 O   0  0  0  0  0  0  0  0  0  0  0  0
  -46.1900   58.4623   59.5092 H   0  0  0  0  0  0  0  0  0  0  0  0
  -49.7965   58.9639   64.6843 C   0  0  0  0  0  0  0  0  0  0  0  0
  -49.0234   59.4391   65.8911 C   0  0  0  0  0  0  0  0  0  0  0  0
  -47.5658   59.2451   65.9449 C   0  0  0  0  0  0  0  0  0  0  0  0
  -46.9043   58.3832   64.8989 C   0  0  0  0  0  0  0  0  0  0  0  0
  -45.5751   57.8384   65.4100 C   0  0  0  0  0  0  0  0  0  0  0  0
  -44.4236   58.3560   64.5483 C   0  0  0  0  0  0  0  0  0  0  0  0
  -44.0080   59.7705   64.9498 C   0  0  0  0  0  0  0  0  0  0  0  0
  -43.7726   59.8896   66.4577 C   0  0  0  0  0  0  0  0  0  0  0  0
  -42.2986   59.7821   66.8394 C   0  0  0  0  0  0  0  0  0  0  0  0
  7  8  2  0  0  0
  7  6  1  0  0  0
  7  9  1  0  0  0
  6  5  1  0  0  0
  5  4  1  0  0  0
  4  3  1  0  0  0
  3  2  1  0  0  0
  2  1  1  0  0  0
  1 11  1  0  0  0
 11 12  1  0  0  0
 12 13  2  0  0  0
 13 14  1  0  0  0
 14 15  1  0  0  0
 15 16  1  0  0  0
 16 17  1  0  0  0
 17 18  1  0  0  0
 18 19  1  0  0  0
  9 10  1  0  0  0
M  END
> <minimizedAffinity>
-6.87838

> <CNNscore>
0.5560655594

> <CNNaffinity>
6.3490953445

> <CNN_VS>
3.5305132866

> <CNNaffinity_variance>
0.3702667952

$$$$
