


 67 67  0  0  0  0  0  0  0  0999 V2000
  -33.1663   64.3377   63.0454 C   0  0  0  0  0  0  0  0  0  0  0  0
  -34.2523   63.4698   63.4910 N   0  0  0  0  0  0  0  0  0  0  0  0
  -35.7945   65.0384   63.9691 O   0  0  0  0  0  0  0  0  0  0  0  0
  -35.3258   63.9180   64.1474 C   0  0  0  0  0  0  0  0  0  0  0  0
  -34.1904   62.5063   63.2980 H   0  0  0  0  0  0  0  0  0  0  0  0
  -35.9413   62.9513   65.1282 C   0  0  0  0  0  0  0  0  0  0  0  0
  -36.4779   61.6955   64.4533 C   0  0  0  0  0  0  0  0  0  0  0  0
  -37.3301   60.8479   65.3841 C   0  0  0  0  0  0  0  0  0  0  0  0
  -38.4088   60.0472   64.6738 C   0  0  0  0  0  0  0  0  0  0  0  0
  -38.8703   58.8186   65.4432 C   0  0  0  0  0  0  0  0  0  0  0  0
  -40.3843   58.6696   65.5226 C   0  0  0  0  0  0  0  0  0  0  0  0
  -41.0891   59.8619   66.1567 C   0  0  0  0  0  0  0  0  0  0  0  0
  -42.3488   59.5085   66.9433 C   0  0  0  0  0  0  0  0  0  0  0  0
  -43.1982   58.4142   66.2987 C   0  0  0  0  0  0  0  0  0  0  0  0
  -44.7013   58.5479   66.5421 C   0  0  0  0  0  0  0  0  0  0  0  0
  -45.5371   58.4338   65.2672 C   0  0  0  0  0  0  0  0  0  0  0  0
  -47.0013   58.0527   65.4851 C   0  0  0  0  0  0  0  0  0  0  0  0
  -47.9095   59.2051   65.9224 C   0  0  0  0  0  0  0  0  0  0  0  0
  -49.3423   58.7879   66.0881 C   0  0  0  0  0  0  0  0  0  0  0  0
  -50.2590   58.7568   65.1371 C   0  0  0  0  0  0  0  0  0  0  0  0
  -50.0520   59.1292   63.7002 C   0  0  0  0  0  0  0  0  0  0  0  0
  -51.2972   58.9410   62.8310 C   0  0  0  0  0  0  0  0  0  0  0  0
  -51.1153   57.8981   61.7362 C   0  0  0  0  0  0  0  0  0  0  0  0
  -49.6603   57.6976   61.3276 C   0  0  0  0  0  0  0  0  0  0  0  0
  -49.2409   58.4742   60.0847 C   0  0  0  0  0  0  0  0  0  0  0  0
  -48.8747   57.5878   58.9026 C   0  0  0  0  0  0  0  0  0  0  0  0
  -47.6283   58.0325   58.1539 C   0  0  0  0  0  0  0  0  0  0  0  0
  -47.5860   57.5258   56.7265 C   0  0  0  0  0  0  0  0  0  0  0  0
  -32.5301   63.9798   60.7428 O   0  0  0  0  0  0  0  0  0  0  0  0
  -32.2549   63.5600   62.0824 C   0  0  0  0  0  0  0  0  0  0  0  0
  -32.4047   64.9391   60.6723 H   0  0  0  0  0  0  0  0  0  0  0  0
  -32.4388   62.0806   62.2288 C   0  0  0  0  0  0  0  0  0  0  0  0
  -31.4662   61.2108   62.4171 C   0  0  0  0  0  0  0  0  0  0  0  0
  -31.6836   59.7416   62.5746 C   0  0  0  0  0  0  0  0  0  0  0  0
  -33.1495   59.4325   62.8858 C   0  0  0  0  0  0  0  0  0  0  0  0
  -33.3496   58.3151   63.8968 C   0  0  0  0  0  0  0  0  0  0  0  0
  -34.6371   58.4192   64.6963 C   0  0  0  0  0  0  0  0  0  0  0  0
  -35.7086   57.4237   64.2761 C   0  0  0  0  0  0  0  0  0  0  0  0
  -35.9449   57.3782   62.7743 C   0  0  0  0  0  0  0  0  0  0  0  0
  -37.4110   57.2920   62.3880 C   0  0  0  0  0  0  0  0  0  0  0  0
  -37.8203   58.2613   61.2947 C   0  0  0  0  0  0  0  0  0  0  0  0
  -39.2777   58.1446   60.8827 C   0  0  0  0  0  0  0  0  0  0  0  0
  -40.1487   57.5149   61.9538 C   0  0  0  0  0  0  0  0  0  0  0  0
  -41.6128   57.3913   61.5779 C   0  0  0  0  0  0  0  0  0  0  0  0
  -42.5307   58.0598   62.5825 C   0  0  0  0  0  0  0  0  0  0  0  0
  -42.3672   59.5655   62.6057 C   0  0  0  0  0  0  0  0  0  0  0  0
  -32.4054   64.8731   64.2408 C   0  0  0  0  0  0  0  0  0  0  0  0
  -31.0893   65.2382   63.8103 O   0  0  0  0  0  0  0  0  0  0  0  0
  -30.2109   67.4032   65.3537 O   0  0  0  0  0  0  0  0  0  0  0  0
  -28.2542   67.8870   61.5511 O   0  0  0  0  0  0  0  0  0  0  0  0
  -30.7155   66.4318   61.8702 O   0  0  0  0  0  0  0  0  0  0  0  0
  -30.9997   66.5176   63.2542 C   0  0  0  0  0  0  0  0  0  0  0  0
  -29.8881   67.2687   63.9754 C   0  0  0  0  0  0  0  0  0  0  0  0
  -29.6953   68.6410   63.3426 C   0  0  0  0  0  0  0  0  0  0  0  0
  -29.4937   68.5261   61.8388 C   0  0  0  0  0  0  0  0  0  0  0  0
  -30.6343   67.7149   61.2291 C   0  0  0  0  0  0  0  0  0  0  0  0
  -30.3310   66.5238   65.7450 H   0  0  0  0  0  0  0  0  0  0  0  0
  -27.5280   68.4009   61.9377 H   0  0  0  0  0  0  0  0  0  0  0  0
  -31.4563   68.1102   58.9804 O   0  0  0  0  0  0  0  0  0  0  0  0
  -30.4558   67.4552   59.7516 C   0  0  0  0  0  0  0  0  0  0  0  0
  -31.3130   67.9235   58.0394 H   0  0  0  0  0  0  0  0  0  0  0  0
  -28.4769   69.1646   63.9597 O   0  0  0  0  0  0  0  0  0  0  0  0
  -27.3637   70.5575   65.5806 O   0  0  0  0  0  0  0  0  0  0  0  0
  -29.8727   70.5041   65.4498 O   0  0  0  0  0  0  0  0  0  0  0  0
  -28.5528   71.5373   63.7685 O   0  0  0  0  0  0  0  0  0  0  0  0
  -28.5838   70.4633   64.8683 S   0  0  0  0  0  0  0  0  0  0  0  0
  -27.6805   71.5403   63.3441 H   0  0  0  0  0  0  0  0  0  0  0  0
  2  1  1  0  0  0
  2  4  1  0  0  0
 47 48  1  0  0  0
 47  1  1  0  0  0
 48 52  1  0  0  0
  1 30  1  0  0  0
 29 30  1  0  0  0
 30 32  1  0  0  0
  3  4  2  0  0  0
 32 33  2  0  0  0
 49 53  1  0  0  0
 33 34  1  0  0  0
 62 54  1  0  0  0
 62 66  1  0  0  0
 34 35  1  0  0  0
 50 55  1  0  0  0
 35 36  1  0  0  0
 51 52  1  0  0  0
 51 56  1  0  0  0
 36 37  1  0  0  0
 59 60  1  0  0  0
 37 38  1  0  0  0
 63 66  2  0  0  0
 38 39  1  0  0  0
 64 66  2  0  0  0
 39 40  1  0  0  0
 65 66  1  0  0  0
 40 41  1  0  0  0
 41 42  1  0  0  0
 42 43  1  0  0  0
 43 44  1  0  0  0
 44 45  1  0  0  0
 45 46  1  0  0  0
  4  6  1  0  0  0
  6  7  1  0  0  0
  7  8  1  0  0  0
  8  9  1  0  0  0
  9 10  1  0  0  0
 10 11  1  0  0  0
 11 12  1  0  0  0
 12 13  1  0  0  0
 13 14  1  0  0  0
 14 15  1  0  0  0
 15 16  1  0  0  0
 16 17  1  0  0  0
 17 18  1  0  0  0
 18 19  1  0  0  0
 19 20  2  0  0  0
 20 21  1  0  0  0
 21 22  1  0  0  0
 22 23  1  0  0  0
 23 24  1  0  0  0
 24 25  1  0  0  0
 25 26  1  0  0  0
 26 27  1  0  0  0
 27 28  1  0  0  0
 52 53  1  0  0  0
 53 54  1  0  0  0
 54 55  1  0  0  0
 55 56  1  0  0  0
 56 60  1  0  0  0
  2  5  1  0  0  0
 29 31  1  0  0  0
 49 57  1  0  0  0
 50 58  1  0  0  0
 59 61  1  0  0  0
 65 67  1  0  0  0
M  CHG 1  64  -1
M  END
> <minimizedAffinity>
-8.95861

> <minimizedRMSD>
2.30732

> <CNNscore>
0.3498649001

> <CNNaffinity>
6.7854156494

> <CNN_VS>
2.3739788532

> <CNNaffinity_variance>
1.0624202490

$$$$
