


 21 20  0  0  0  0  0  0  0  0999 V2000
  -46.4626   58.1200   64.8451 C   0  0  0  0  0  0  0  0  0  0  0  0
  -47.7851   58.0898   65.5702 C   0  0  0  0  0  0  0  0  0  0  0  0
  -49.0368   58.2505   64.8176 C   0  0  0  0  0  0  0  0  0  0  0  0
  -49.5937   59.6311   64.5501 C   0  0  0  0  0  0  0  0  0  0  0  0
  -49.9242   59.7896   63.0665 C   0  0  0  0  0  0  0  0  0  0  0  0
  -50.8901   58.7272   62.5487 C   0  0  0  0  0  0  0  0  0  0  0  0
  -50.3215   57.9943   61.3307 C   0  0  0  0  0  0  0  0  0  0  0  0
  -48.7994   58.0916   61.1715 C   0  0  0  0  0  0  0  0  0  0  0  0
  -48.3929   58.5648   59.7697 C   0  0  0  0  0  0  0  0  0  0  0  0
  -47.5662   57.5229   59.0116 C   0  0  0  0  0  0  0  0  0  0  0  0
  -46.9967   58.0440   57.6866 C   0  0  0  0  0  0  0  0  0  0  0  0
  -45.5275   57.1561   65.5574 C   0  0  0  0  0  0  0  0  0  0  0  0
  -44.1909   57.0375   64.8470 C   0  0  0  0  0  0  0  0  0  0  0  0
  -43.0463   57.4871   65.7501 C   0  0  0  0  0  0  0  0  0  0  0  0
  -42.3613   58.7113   65.1589 C   0  0  0  0  0  0  0  0  0  0  0  0
  -40.8871   58.7425   65.5302 C   0  0  0  0  0  0  0  0  0  0  0  0
  -40.0359   59.2278   64.3613 C   0  0  0  0  0  0  0  0  0  0  0  0
  -38.7817   58.3820   64.2574 C   0  0  0  0  0  0  0  0  0  0  0  0
  -38.0756   58.1726   65.2768 O   0  0  0  0  0  0  0  0  0  0  0  0
  -38.4363   57.8886   63.1527 O   0  0  0  0  0  0  0  0  0  0  0  0
  -38.9570   58.0401   62.3886 H   0  0  0  0  0  0  0  0  0  0  0  0
 18 19  2  0  0  0
 18 17  1  0  0  0
 18 20  1  0  0  0
 17 16  1  0  0  0
 16 15  1  0  0  0
 15 14  1  0  0  0
 14 13  1  0  0  0
 13 12  1  0  0  0
 12  1  1  0  0  0
  1  2  1  0  0  0
  2  3  1  0  0  0
  3  4  1  0  0  0
  4  5  1  0  0  0
  5  6  1  0  0  0
  6  7  1  0  0  0
  7  8  1  0  0  0
  8  9  1  0  0  0
  9 10  1  0  0  0
 10 11  1  0  0  0
 20 21  1  0  0  0
M  END
> <minimizedAffinity>
-6.74602

> <minimizedRMSD>
1.43434

> <CNNscore>
0.8117014170

> <CNNaffinity>
6.7369322777

> <CNN_VS>
5.4683775902

> <CNNaffinity_variance>
0.4461616874

$$$$
