


 21 20  0  0  0  0  0  0  0  0999 V2000
  -48.0408   58.0849   65.5236 C   0  0  0  0  0  0  0  0  0  0  0  0
  -49.0706   59.1850   65.4529 C   0  0  0  0  0  0  0  0  0  0  0  0
  -50.1864   59.0837   64.5022 C   0  0  0  0  0  0  0  0  0  0  0  0
  -50.3642   60.1266   63.4214 C   0  0  0  0  0  0  0  0  0  0  0  0
  -50.2668   59.4791   62.0406 C   0  0  0  0  0  0  0  0  0  0  0  0
  -50.4629   57.9657   62.0709 C   0  0  0  0  0  0  0  0  0  0  0  0
  -49.4547   57.2486   61.1691 C   0  0  0  0  0  0  0  0  0  0  0  0
  -49.3263   57.8290   59.7555 C   0  0  0  0  0  0  0  0  0  0  0  0
  -48.9214   56.7647   58.7271 C   0  0  0  0  0  0  0  0  0  0  0  0
  -47.6969   57.1743   57.9046 C   0  0  0  0  0  0  0  0  0  0  0  0
  -47.6138   56.4709   56.5445 C   0  0  0  0  0  0  0  0  0  0  0  0
  -47.0741   58.2875   64.3680 C   0  0  0  0  0  0  0  0  0  0  0  0
  -45.6293   58.1255   64.8057 C   0  0  0  0  0  0  0  0  0  0  0  0
  -45.1638   59.3276   65.6218 C   0  0  0  0  0  0  0  0  0  0  0  0
  -43.8302   59.8364   65.0926 C   0  0  0  0  0  0  0  0  0  0  0  0
  -42.6909   59.4428   66.0196 C   0  0  0  0  0  0  0  0  0  0  0  0
  -42.1032   60.6647   66.7180 C   0  0  0  0  0  0  0  0  0  0  0  0
  -40.8038   61.0617   66.0449 C   0  0  0  0  0  0  0  0  0  0  0  0
  -40.0558   60.1812   65.5481 O   0  0  0  0  0  0  0  0  0  0  0  0
  -40.4628   62.2712   65.9825 O   0  0  0  0  0  0  0  0  0  0  0  0
  -41.0147   62.9331   66.3502 H   0  0  0  0  0  0  0  0  0  0  0  0
 18 19  2  0  0  0
 18 17  1  0  0  0
 18 20  1  0  0  0
 17 16  1  0  0  0
 16 15  1  0  0  0
 15 14  1  0  0  0
 14 13  1  0  0  0
 13 12  1  0  0  0
 12  1  1  0  0  0
  1  2  1  0  0  0
  2  3  1  0  0  0
  3  4  1  0  0  0
  4  5  1  0  0  0
  5  6  1  0  0  0
  6  7  1  0  0  0
  7  8  1  0  0  0
  8  9  1  0  0  0
  9 10  1  0  0  0
 10 11  1  0  0  0
 20 21  1  0  0  0
M  END
> <minimizedAffinity>
-6.89811

> <CNNscore>
0.8821436763

> <CNNaffinity>
6.8765921593

> <CNN_VS>
6.0661420822

> <CNNaffinity_variance>
0.7057930231

$$$$



 21 20  0  0  0  0  0  0  0  0999 V2000
  -47.9622   59.7225   66.1043 C   0  0  0  0  0  0  0  0  0  0  0  0
  -48.0290   60.7186   64.9732 C   0  0  0  0  0  0  0  0  0  0  0  0
  -49.0886   60.6077   63.9613 C   0  0  0  0  0  0  0  0  0  0  0  0
  -50.4623   60.1064   64.3476 C   0  0  0  0  0  0  0  0  0  0  0  0
  -51.3178   59.8937   63.0993 C   0  0  0  0  0  0  0  0  0  0  0  0
  -50.5205   59.3770   61.9047 C   0  0  0  0  0  0  0  0  0  0  0  0
  -50.3830   57.8524   61.9358 C   0  0  0  0  0  0  0  0  0  0  0  0
  -50.8670   57.1349   60.6699 C   0  0  0  0  0  0  0  0  0  0  0  0
  -50.2590   57.7357   59.3955 C   0  0  0  0  0  0  0  0  0  0  0  0
  -48.9770   57.0215   58.9598 C   0  0  0  0  0  0  0  0  0  0  0  0
  -48.7352   55.6994   59.6983 C   0  0  0  0  0  0  0  0  0  0  0  0
  -46.5519   59.1560   66.1330 C   0  0  0  0  0  0  0  0  0  0  0  0
  -45.6129   59.9331   65.2276 C   0  0  0  0  0  0  0  0  0  0  0  0
  -44.3056   59.1767   65.0118 C   0  0  0  0  0  0  0  0  0  0  0  0
  -43.2004   59.7857   65.8633 C   0  0  0  0  0  0  0  0  0  0  0  0
  -42.0397   60.2499   64.9976 C   0  0  0  0  0  0  0  0  0  0  0  0
  -40.7754   60.4408   65.8293 C   0  0  0  0  0  0  0  0  0  0  0  0
  -39.8707   61.4552   65.1574 C   0  0  0  0  0  0  0  0  0  0  0  0
  -39.7759   61.4834   63.9036 O   0  0  0  0  0  0  0  0  0  0  0  0
  -39.2062   62.2710   65.8473 O   0  0  0  0  0  0  0  0  0  0  0  0
  -39.2713   62.2563   66.7819 H   0  0  0  0  0  0  0  0  0  0  0  0
 18 19  2  0  0  0
 18 17  1  0  0  0
 18 20  1  0  0  0
 17 16  1  0  0  0
 16 15  1  0  0  0
 15 14  1  0  0  0
 14 13  1  0  0  0
 13 12  1  0  0  0
 12  1  1  0  0  0
  1  2  1  0  0  0
  2  3  1  0  0  0
  3  4  1  0  0  0
  4  5  1  0  0  0
  5  6  1  0  0  0
  6  7  1  0  0  0
  7  8  1  0  0  0
  8  9  1  0  0  0
  9 10  1  0  0  0
 10 11  1  0  0  0
 20 21  1  0  0  0
M  END
> <minimizedAffinity>
-7.19273

> <CNNscore>
0.8714311719

> <CNNaffinity>
6.6278624535

> <CNN_VS>
5.7757258415

> <CNNaffinity_variance>
0.6477813721

$$$$



 21 20  0  0  0  0  0  0  0  0999 V2000
  -46.7887   57.8143   65.5442 C   0  0  0  0  0  0  0  0  0  0  0  0
  -47.9260   58.0816   64.5897 C   0  0  0  0  0  0  0  0  0  0  0  0
  -49.3133   57.8750   65.0275 C   0  0  0  0  0  0  0  0  0  0  0  0
  -50.1790   59.0576   65.4013 C   0  0  0  0  0  0  0  0  0  0  0  0
  -50.1100   60.1284   64.3132 C   0  0  0  0  0  0  0  0  0  0  0  0
  -51.2193   60.0006   63.2726 C   0  0  0  0  0  0  0  0  0  0  0  0
  -50.6955   59.4123   61.9597 C   0  0  0  0  0  0  0  0  0  0  0  0
  -50.9333   57.9073   61.7867 C   0  0  0  0  0  0  0  0  0  0  0  0
  -50.3518   57.3769   60.4695 C   0  0  0  0  0  0  0  0  0  0  0  0
  -48.8891   56.9450   60.6017 C   0  0  0  0  0  0  0  0  0  0  0  0
  -48.3777   56.1488   59.3949 C   0  0  0  0  0  0  0  0  0  0  0  0
  -45.4970   58.1816   64.8318 C   0  0  0  0  0  0  0  0  0  0  0  0
  -44.7835   59.3343   65.5156 C   0  0  0  0  0  0  0  0  0  0  0  0
  -43.4302   59.6066   64.8657 C   0  0  0  0  0  0  0  0  0  0  0  0
  -42.3441   58.7920   65.5545 C   0  0  0  0  0  0  0  0  0  0  0  0
  -40.9664   59.1742   65.0368 C   0  0  0  0  0  0  0  0  0  0  0  0
  -40.2784   60.1572   65.9785 C   0  0  0  0  0  0  0  0  0  0  0  0
  -40.0514   61.4751   65.2639 C   0  0  0  0  0  0  0  0  0  0  0  0
  -40.6837   61.7380   64.2090 O   0  0  0  0  0  0  0  0  0  0  0  0
  -39.2276   62.3113   65.7169 O   0  0  0  0  0  0  0  0  0  0  0  0
  -38.7526   62.1228   66.5023 H   0  0  0  0  0  0  0  0  0  0  0  0
 18 19  2  0  0  0
 18 17  1  0  0  0
 18 20  1  0  0  0
 17 16  1  0  0  0
 16 15  1  0  0  0
 15 14  1  0  0  0
 14 13  1  0  0  0
 13 12  1  0  0  0
 12  1  1  0  0  0
  1  2  1  0  0  0
  2  3  1  0  0  0
  3  4  1  0  0  0
  4  5  1  0  0  0
  5  6  1  0  0  0
  6  7  1  0  0  0
  7  8  1  0  0  0
  8  9  1  0  0  0
  9 10  1  0  0  0
 10 11  1  0  0  0
 20 21  1  0  0  0
M  END
> <minimizedAffinity>
-6.88101

> <CNNscore>
0.8695987463

> <CNNaffinity>
6.7228507996

> <CNN_VS>
5.8461828232

> <CNNaffinity_variance>
0.8101465106

$$$$



 21 20  0  0  0  0  0  0  0  0999 V2000
  -45.7896   57.0369   65.5405 C   0  0  0  0  0  0  0  0  0  0  0  0
  -47.0805   57.7901   65.7460 C   0  0  0  0  0  0  0  0  0  0  0  0
  -48.2808   57.4058   64.9908 C   0  0  0  0  0  0  0  0  0  0  0  0
  -48.8811   58.3554   63.9783 C   0  0  0  0  0  0  0  0  0  0  0  0
  -48.7917   57.7576   62.5747 C   0  0  0  0  0  0  0  0  0  0  0  0
  -49.8915   58.2523   61.6391 C   0  0  0  0  0  0  0  0  0  0  0  0
  -50.3510   57.1524   60.6782 C   0  0  0  0  0  0  0  0  0  0  0  0
  -49.2239   56.2872   60.1015 C   0  0  0  0  0  0  0  0  0  0  0  0
  -48.3308   57.0712   59.1309 C   0  0  0  0  0  0  0  0  0  0  0  0
  -48.4941   56.6148   57.6788 C   0  0  0  0  0  0  0  0  0  0  0  0
  -47.2160   56.7669   56.8452 C   0  0  0  0  0  0  0  0  0  0  0  0
  -44.8455   57.9473   64.7719 C   0  0  0  0  0  0  0  0  0  0  0  0
  -45.0067   59.4010   65.1794 C   0  0  0  0  0  0  0  0  0  0  0  0
  -43.6563   60.0362   65.4968 C   0  0  0  0  0  0  0  0  0  0  0  0
  -42.5305   59.1965   64.9095 C   0  0  0  0  0  0  0  0  0  0  0  0
  -41.3146   59.2015   65.8226 C   0  0  0  0  0  0  0  0  0  0  0  0
  -40.0657   59.6530   65.0725 C   0  0  0  0  0  0  0  0  0  0  0  0
  -39.8962   61.1526   65.2194 C   0  0  0  0  0  0  0  0  0  0  0  0
  -40.4851   61.7665   66.1456 O   0  0  0  0  0  0  0  0  0  0  0  0
  -39.1707   61.7931   64.4152 O   0  0  0  0  0  0  0  0  0  0  0  0
  -38.7286   61.3429   63.7225 H   0  0  0  0  0  0  0  0  0  0  0  0
 18 19  2  0  0  0
 18 17  1  0  0  0
 18 20  1  0  0  0
 17 16  1  0  0  0
 16 15  1  0  0  0
 15 14  1  0  0  0
 14 13  1  0  0  0
 13 12  1  0  0  0
 12  1  1  0  0  0
  1  2  1  0  0  0
  2  3  1  0  0  0
  3  4  1  0  0  0
  4  5  1  0  0  0
  5  6  1  0  0  0
  6  7  1  0  0  0
  7  8  1  0  0  0
  8  9  1  0  0  0
  9 10  1  0  0  0
 10 11  1  0  0  0
 20 21  1  0  0  0
M  END
> <minimizedAffinity>
-6.61678

> <CNNscore>
0.8622511029

> <CNNaffinity>
6.8573050499

> <CNN_VS>
5.9127187729

> <CNNaffinity_variance>
0.8032169342

$$$$



 21 20  0  0  0  0  0  0  0  0999 V2000
  -45.7623   57.0161   65.6738 C   0  0  0  0  0  0  0  0  0  0  0  0
  -46.3667   58.3513   66.0315 C   0  0  0  0  0  0  0  0  0  0  0  0
  -47.5377   58.8460   65.2946 C   0  0  0  0  0  0  0  0  0  0  0  0
  -48.3554   57.9030   64.4405 C   0  0  0  0  0  0  0  0  0  0  0  0
  -49.8455   58.0914   64.7227 C   0  0  0  0  0  0  0  0  0  0  0  0
  -50.1885   59.4872   65.2363 C   0  0  0  0  0  0  0  0  0  0  0  0
  -50.8222   60.3505   64.1421 C   0  0  0  0  0  0  0  0  0  0  0  0
  -51.2027   59.5946   62.8632 C   0  0  0  0  0  0  0  0  0  0  0  0
  -50.2228   59.8694   61.7149 C   0  0  0  0  0  0  0  0  0  0  0  0
  -49.7839   58.5917   60.9949 C   0  0  0  0  0  0  0  0  0  0  0  0
  -50.8463   57.4860   61.0146 C   0  0  0  0  0  0  0  0  0  0  0  0
  -44.4826   57.2856   64.8989 C   0  0  0  0  0  0  0  0  0  0  0  0
  -43.2494   57.1091   65.7668 C   0  0  0  0  0  0  0  0  0  0  0  0
  -42.3430   58.3340   65.6903 C   0  0  0  0  0  0  0  0  0  0  0  0
  -42.9736   59.3987   64.8035 C   0  0  0  0  0  0  0  0  0  0  0  0
  -42.0961   60.6386   64.7339 C   0  0  0  0  0  0  0  0  0  0  0  0
  -41.3340   60.8467   66.0386 C   0  0  0  0  0  0  0  0  0  0  0  0
  -39.8837   61.1699   65.7366 C   0  0  0  0  0  0  0  0  0  0  0  0
  -39.0885   60.2534   65.4061 O   0  0  0  0  0  0  0  0  0  0  0  0
  -39.4648   62.3535   65.8186 O   0  0  0  0  0  0  0  0  0  0  0  0
  -40.0510   63.0420   66.0642 H   0  0  0  0  0  0  0  0  0  0  0  0
 18 19  2  0  0  0
 18 17  1  0  0  0
 18 20  1  0  0  0
 17 16  1  0  0  0
 16 15  1  0  0  0
 15 14  1  0  0  0
 14 13  1  0  0  0
 13 12  1  0  0  0
 12  1  1  0  0  0
  1  2  1  0  0  0
  2  3  1  0  0  0
  3  4  1  0  0  0
  4  5  1  0  0  0
  5  6  1  0  0  0
  6  7  1  0  0  0
  7  8  1  0  0  0
  8  9  1  0  0  0
  9 10  1  0  0  0
 10 11  1  0  0  0
 20 21  1  0  0  0
M  END
> <minimizedAffinity>
-7.00056

> <CNNscore>
0.8067384958

> <CNNaffinity>
6.5174560547

> <CNN_VS>
5.2578825951

> <CNNaffinity_variance>
0.2931728065

$$$$



 21 20  0  0  0  0  0  0  0  0999 V2000
  -43.1441   57.2209   65.7361 C   0  0  0  0  0  0  0  0  0  0  0  0
  -44.4075   57.2183   64.9118 C   0  0  0  0  0  0  0  0  0  0  0  0
  -45.3759   58.3144   65.0523 C   0  0  0  0  0  0  0  0  0  0  0  0
  -46.5698   58.1642   65.9686 C   0  0  0  0  0  0  0  0  0  0  0  0
  -47.6801   57.3832   65.2667 C   0  0  0  0  0  0  0  0  0  0  0  0
  -48.9941   58.1547   65.1776 C   0  0  0  0  0  0  0  0  0  0  0  0
  -48.7691   59.6654   65.2845 C   0  0  0  0  0  0  0  0  0  0  0  0
  -49.4968   60.5027   64.2258 C   0  0  0  0  0  0  0  0  0  0  0  0
  -51.0008   60.2016   64.1829 C   0  0  0  0  0  0  0  0  0  0  0  0
  -51.4968   59.8729   62.7724 C   0  0  0  0  0  0  0  0  0  0  0  0
  -50.7262   58.7258   62.1076 C   0  0  0  0  0  0  0  0  0  0  0  0
  -42.7247   58.6695   65.9270 C   0  0  0  0  0  0  0  0  0  0  0  0
  -41.2740   58.8929   65.5386 C   0  0  0  0  0  0  0  0  0  0  0  0
  -41.0293   60.3446   65.1376 C   0  0  0  0  0  0  0  0  0  0  0  0
  -40.5479   60.4165   63.6952 C   0  0  0  0  0  0  0  0  0  0  0  0
  -39.2496   61.2014   63.5933 C   0  0  0  0  0  0  0  0  0  0  0  0
  -38.5784   61.3333   64.9566 C   0  0  0  0  0  0  0  0  0  0  0  0
  -37.2597   62.0667   64.8076 C   0  0  0  0  0  0  0  0  0  0  0  0
  -36.7436   62.6445   65.7982 O   0  0  0  0  0  0  0  0  0  0  0  0
  -36.6757   62.1065   63.6938 O   0  0  0  0  0  0  0  0  0  0  0  0
  -37.0538   61.6785   62.9510 H   0  0  0  0  0  0  0  0  0  0  0  0
 18 19  2  0  0  0
 18 17  1  0  0  0
 18 20  1  0  0  0
 17 16  1  0  0  0
 16 15  1  0  0  0
 15 14  1  0  0  0
 14 13  1  0  0  0
 13 12  1  0  0  0
 12  1  1  0  0  0
  1  2  1  0  0  0
  2  3  1  0  0  0
  3  4  1  0  0  0
  4  5  1  0  0  0
  5  6  1  0  0  0
  6  7  1  0  0  0
  7  8  1  0  0  0
  8  9  1  0  0  0
  9 10  1  0  0  0
 10 11  1  0  0  0
 20 21  1  0  0  0
M  END
> <minimizedAffinity>
-6.46931

> <CNNscore>
0.7824414968

> <CNNaffinity>
6.5034189224

> <CNN_VS>
5.0885448456

> <CNNaffinity_variance>
0.6630671620

$$$$



 21 20  0  0  0  0  0  0  0  0999 V2000
  -50.2475   59.2405   65.2863 C   0  0  0  0  0  0  0  0  0  0  0  0
  -50.8521   60.2431   64.3349 C   0  0  0  0  0  0  0  0  0  0  0  0
  -51.3070   59.8102   63.0066 C   0  0  0  0  0  0  0  0  0  0  0  0
  -50.3031   59.3886   61.9568 C   0  0  0  0  0  0  0  0  0  0  0  0
  -50.1754   57.8659   61.9286 C   0  0  0  0  0  0  0  0  0  0  0  0
  -50.8585   57.2275   60.7221 C   0  0  0  0  0  0  0  0  0  0  0  0
  -49.9083   57.1238   59.5261 C   0  0  0  0  0  0  0  0  0  0  0  0
  -48.4534   56.7971   59.8841 C   0  0  0  0  0  0  0  0  0  0  0  0
  -47.7206   56.0870   58.7382 C   0  0  0  0  0  0  0  0  0  0  0  0
  -47.3127   57.0443   57.6154 C   0  0  0  0  0  0  0  0  0  0  0  0
  -47.5084   56.4564   56.2127 C   0  0  0  0  0  0  0  0  0  0  0  0
  -48.8299   59.6964   65.5920 C   0  0  0  0  0  0  0  0  0  0  0  0
  -47.7993   58.8901   64.8218 C   0  0  0  0  0  0  0  0  0  0  0  0
  -47.7906   57.4331   65.2745 C   0  0  0  0  0  0  0  0  0  0  0  0
  -46.4210   57.0633   65.8266 C   0  0  0  0  0  0  0  0  0  0  0  0
  -45.3163   57.4924   64.8738 C   0  0  0  0  0  0  0  0  0  0  0  0
  -43.9474   57.0594   65.3886 C   0  0  0  0  0  0  0  0  0  0  0  0
  -43.0444   58.2706   65.5186 C   0  0  0  0  0  0  0  0  0  0  0  0
  -43.3346   59.3406   64.9250 O   0  0  0  0  0  0  0  0  0  0  0  0
  -41.9985   58.2130   66.2157 O   0  0  0  0  0  0  0  0  0  0  0  0
  -41.7754   57.4194   66.6610 H   0  0  0  0  0  0  0  0  0  0  0  0
 18 19  2  0  0  0
 18 17  1  0  0  0
 18 20  1  0  0  0
 17 16  1  0  0  0
 16 15  1  0  0  0
 15 14  1  0  0  0
 14 13  1  0  0  0
 13 12  1  0  0  0
 12  1  1  0  0  0
  1  2  1  0  0  0
  2  3  1  0  0  0
  3  4  1  0  0  0
  4  5  1  0  0  0
  5  6  1  0  0  0
  6  7  1  0  0  0
  7  8  1  0  0  0
  8  9  1  0  0  0
  9 10  1  0  0  0
 10 11  1  0  0  0
 20 21  1  0  0  0
M  END
> <minimizedAffinity>
-7.29059

> <CNNscore>
0.7704882026

> <CNNaffinity>
6.7713179588

> <CNN_VS>
5.2172207832

> <CNNaffinity_variance>
0.5697225928

$$$$



 21 20  0  0  0  0  0  0  0  0999 V2000
  -45.4523   58.0198   65.6167 C   0  0  0  0  0  0  0  0  0  0  0  0
  -46.4269   58.2905   64.4974 C   0  0  0  0  0  0  0  0  0  0  0  0
  -47.8663   58.0914   64.7154 C   0  0  0  0  0  0  0  0  0  0  0  0
  -48.6793   59.1390   65.4428 C   0  0  0  0  0  0  0  0  0  0  0  0
  -50.1266   59.1196   64.9526 C   0  0  0  0  0  0  0  0  0  0  0  0
  -50.4853   60.3259   64.0890 C   0  0  0  0  0  0  0  0  0  0  0  0
  -51.1841   59.9040   62.7937 C   0  0  0  0  0  0  0  0  0  0  0  0
  -50.8813   58.4727   62.3339 C   0  0  0  0  0  0  0  0  0  0  0  0
  -49.9963   58.4422   61.0808 C   0  0  0  0  0  0  0  0  0  0  0  0
  -50.2111   57.1831   60.2370 C   0  0  0  0  0  0  0  0  0  0  0  0
  -49.4660   57.2134   58.8970 C   0  0  0  0  0  0  0  0  0  0  0  0
  -44.0615   58.3582   65.1048 C   0  0  0  0  0  0  0  0  0  0  0  0
  -43.7342   59.8292   65.2901 C   0  0  0  0  0  0  0  0  0  0  0  0
  -42.3000   60.1312   64.8662 C   0  0  0  0  0  0  0  0  0  0  0  0
  -42.2510   60.4651   63.3817 C   0  0  0  0  0  0  0  0  0  0  0  0
  -41.2021   61.5286   63.0975 C   0  0  0  0  0  0  0  0  0  0  0  0
  -39.8033   60.9224   63.0499 C   0  0  0  0  0  0  0  0  0  0  0  0
  -39.3510   60.7948   61.6082 C   0  0  0  0  0  0  0  0  0  0  0  0
  -38.1434   60.5637   61.3438 O   0  0  0  0  0  0  0  0  0  0  0  0
  -40.1772   60.9236   60.6681 O   0  0  0  0  0  0  0  0  0  0  0  0
  -41.0787   61.0959   60.8569 H   0  0  0  0  0  0  0  0  0  0  0  0
 18 19  2  0  0  0
 18 17  1  0  0  0
 18 20  1  0  0  0
 17 16  1  0  0  0
 16 15  1  0  0  0
 15 14  1  0  0  0
 14 13  1  0  0  0
 13 12  1  0  0  0
 12  1  1  0  0  0
  1  2  1  0  0  0
  2  3  1  0  0  0
  3  4  1  0  0  0
  4  5  1  0  0  0
  5  6  1  0  0  0
  6  7  1  0  0  0
  7  8  1  0  0  0
  8  9  1  0  0  0
  9 10  1  0  0  0
 10 11  1  0  0  0
 20 21  1  0  0  0
M  END
> <minimizedAffinity>
-6.89158

> <CNNscore>
0.7284724116

> <CNNaffinity>
6.4440107346

> <CNN_VS>
4.6942839622

> <CNNaffinity_variance>
0.4790754914

$$$$



 21 20  0  0  0  0  0  0  0  0999 V2000
  -44.4250   57.5540   65.5316 C   0  0  0  0  0  0  0  0  0  0  0  0
  -45.9121   57.3565   65.3723 C   0  0  0  0  0  0  0  0  0  0  0  0
  -46.8280   58.4851   65.5876 C   0  0  0  0  0  0  0  0  0  0  0  0
  -48.3221   58.2901   65.4573 C   0  0  0  0  0  0  0  0  0  0  0  0
  -49.0468   59.6240   65.6335 C   0  0  0  0  0  0  0  0  0  0  0  0
  -50.5378   59.5448   65.3164 C   0  0  0  0  0  0  0  0  0  0  0  0
  -50.8846   60.3181   64.0413 C   0  0  0  0  0  0  0  0  0  0  0  0
  -51.2239   59.4434   62.8283 C   0  0  0  0  0  0  0  0  0  0  0  0
  -49.9739   58.8086   62.2045 C   0  0  0  0  0  0  0  0  0  0  0  0
  -49.7033   59.3107   60.7839 C   0  0  0  0  0  0  0  0  0  0  0  0
  -49.2679   60.7802   60.7299 C   0  0  0  0  0  0  0  0  0  0  0  0
  -44.0591   58.8567   64.8388 C   0  0  0  0  0  0  0  0  0  0  0  0
  -43.1982   59.7428   65.7213 C   0  0  0  0  0  0  0  0  0  0  0  0
  -42.0689   58.9453   66.3666 C   0  0  0  0  0  0  0  0  0  0  0  0
  -41.0071   58.6060   65.3298 C   0  0  0  0  0  0  0  0  0  0  0  0
  -40.6748   59.8185   64.4744 C   0  0  0  0  0  0  0  0  0  0  0  0
  -39.2277   60.2552   64.6785 C   0  0  0  0  0  0  0  0  0  0  0  0
  -39.1917   61.5504   65.4661 C   0  0  0  0  0  0  0  0  0  0  0  0
  -40.2422   61.9980   65.9930 O   0  0  0  0  0  0  0  0  0  0  0  0
  -38.1144   62.1878   65.5943 O   0  0  0  0  0  0  0  0  0  0  0  0
  -37.3274   61.8608   65.2048 H   0  0  0  0  0  0  0  0  0  0  0  0
 18 19  2  0  0  0
 18 17  1  0  0  0
 18 20  1  0  0  0
 17 16  1  0  0  0
 16 15  1  0  0  0
 15 14  1  0  0  0
 14 13  1  0  0  0
 13 12  1  0  0  0
 12  1  1  0  0  0
  1  2  1  0  0  0
  2  3  1  0  0  0
  3  4  1  0  0  0
  4  5  1  0  0  0
  5  6  1  0  0  0
  6  7  1  0  0  0
  7  8  1  0  0  0
  8  9  1  0  0  0
  9 10  1  0  0  0
 10 11  1  0  0  0
 20 21  1  0  0  0
M  END
> <minimizedAffinity>
-6.74893

> <CNNscore>
0.7212929130

> <CNNaffinity>
6.3150949478

> <CNN_VS>
4.5550332069

> <CNNaffinity_variance>
0.3361632228

$$$$
