


 21 20  0  0  0  0  0  0  0  0999 V2000
  -48.9604   58.9346   66.2010 C   0  0  0  0  0  0  0  0  0  0  0  0
  -50.3724   58.8480   65.6769 C   0  0  0  0  0  0  0  0  0  0  0  0
  -50.6097   58.5515   64.2575 C   0  0  0  0  0  0  0  0  0  0  0  0
  -51.2513   59.5855   63.3594 C   0  0  0  0  0  0  0  0  0  0  0  0
  -50.9422   59.2786   61.8946 C   0  0  0  0  0  0  0  0  0  0  0  0
  -51.1972   57.8214   61.5188 C   0  0  0  0  0  0  0  0  0  0  0  0
  -50.5261   57.4558   60.1921 C   0  0  0  0  0  0  0  0  0  0  0  0
  -49.0568   57.8787   60.0742 C   0  0  0  0  0  0  0  0  0  0  0  0
  -48.2400   56.9016   59.2182 C   0  0  0  0  0  0  0  0  0  0  0  0
  -47.3486   57.6141   58.1976 C   0  0  0  0  0  0  0  0  0  0  0  0
  -47.2325   56.8666   56.8637 C   0  0  0  0  0  0  0  0  0  0  0  0
  -48.1746   59.8282   65.2550 C   0  0  0  0  0  0  0  0  0  0  0  0
  -46.6763   59.6624   65.4360 C   0  0  0  0  0  0  0  0  0  0  0  0
  -46.2061   58.3072   64.9163 C   0  0  0  0  0  0  0  0  0  0  0  0
  -44.7258   58.1154   65.2155 C   0  0  0  0  0  0  0  0  0  0  0  0
  -44.1015   59.4057   65.7229 C   0  0  0  0  0  0  0  0  0  0  0  0
  -42.9097   59.1200   66.6308 C   0  0  0  0  0  0  0  0  0  0  0  0
  -41.6207   59.4205   65.8910 C   0  0  0  0  0  0  0  0  0  0  0  0
  -41.0906   60.5572   65.9830 O   0  0  0  0  0  0  0  0  0  0  0  0
  -41.0758   58.5388   65.1777 O   0  0  0  0  0  0  0  0  0  0  0  0
  -41.4646   57.6895   65.1040 H   0  0  0  0  0  0  0  0  0  0  0  0
 18 19  2  0  0  0
 18 17  1  0  0  0
 18 20  1  0  0  0
 17 16  1  0  0  0
 16 15  1  0  0  0
 15 14  1  0  0  0
 14 13  1  0  0  0
 13 12  1  0  0  0
 12  1  1  0  0  0
  1  2  1  0  0  0
  2  3  1  0  0  0
  3  4  1  0  0  0
  4  5  1  0  0  0
  5  6  1  0  0  0
  6  7  1  0  0  0
  7  8  1  0  0  0
  8  9  1  0  0  0
  9 10  1  0  0  0
 10 11  1  0  0  0
 20 21  1  0  0  0
M  END
> <minimizedAffinity>
-7.27358

> <CNNscore>
0.8560644388

> <CNNaffinity>
6.6728744507

> <CNN_VS>
5.7124104500

> <CNNaffinity_variance>
0.3272883296

$$$$



 21 20  0  0  0  0  0  0  0  0999 V2000
  -51.0037   59.9109   63.8869 C   0  0  0  0  0  0  0  0  0  0  0  0
  -50.6110   58.6305   64.5815 C   0  0  0  0  0  0  0  0  0  0  0  0
  -49.4793   58.6231   65.5186 C   0  0  0  0  0  0  0  0  0  0  0  0
  -48.6760   59.8828   65.7540 C   0  0  0  0  0  0  0  0  0  0  0  0
  -47.1806   59.5806   65.6662 C   0  0  0  0  0  0  0  0  0  0  0  0
  -46.8809   58.1313   65.2925 C   0  0  0  0  0  0  0  0  0  0  0  0
  -45.4327   57.9571   64.8273 C   0  0  0  0  0  0  0  0  0  0  0  0
  -44.7285   56.7053   65.3644 C   0  0  0  0  0  0  0  0  0  0  0  0
  -43.6520   57.0471   66.4030 C   0  0  0  0  0  0  0  0  0  0  0  0
  -42.9390   58.3678   66.1013 C   0  0  0  0  0  0  0  0  0  0  0  0
  -42.8576   59.3063   67.3113 C   0  0  0  0  0  0  0  0  0  0  0  0
  -51.2740   59.5766   62.4288 C   0  0  0  0  0  0  0  0  0  0  0  0
  -51.3170   58.0775   62.1920 C   0  0  0  0  0  0  0  0  0  0  0  0
  -50.8512   57.7300   60.7813 C   0  0  0  0  0  0  0  0  0  0  0  0
  -49.3690   57.3825   60.7888 C   0  0  0  0  0  0  0  0  0  0  0  0
  -49.0340   56.4032   59.6749 C   0  0  0  0  0  0  0  0  0  0  0  0
  -48.4236   57.1219   58.4761 C   0  0  0  0  0  0  0  0  0  0  0  0
  -47.9960   56.1057   57.4351 C   0  0  0  0  0  0  0  0  0  0  0  0
  -47.8984   54.8902   57.7426 O   0  0  0  0  0  0  0  0  0  0  0  0
  -47.7319   56.4705   56.2602 O   0  0  0  0  0  0  0  0  0  0  0  0
  -47.8022   57.3743   56.0233 H   0  0  0  0  0  0  0  0  0  0  0  0
 18 19  2  0  0  0
 18 17  1  0  0  0
 18 20  1  0  0  0
 17 16  1  0  0  0
 16 15  1  0  0  0
 15 14  1  0  0  0
 14 13  1  0  0  0
 13 12  1  0  0  0
 12  1  1  0  0  0
  1  2  1  0  0  0
  2  3  1  0  0  0
  3  4  1  0  0  0
  4  5  1  0  0  0
  5  6  1  0  0  0
  6  7  1  0  0  0
  7  8  1  0  0  0
  8  9  1  0  0  0
  9 10  1  0  0  0
 10 11  1  0  0  0
 20 21  1  0  0  0
M  END
> <minimizedAffinity>
-7.54584

> <CNNscore>
0.8258081675

> <CNNaffinity>
6.8155441284

> <CNN_VS>
5.6283321381

> <CNNaffinity_variance>
0.6546925306

$$$$



 21 20  0  0  0  0  0  0  0  0999 V2000
  -46.8151   58.1198   64.6832 C   0  0  0  0  0  0  0  0  0  0  0  0
  -48.2627   58.5439   64.6671 C   0  0  0  0  0  0  0  0  0  0  0  0
  -48.8822   58.9865   63.4104 C   0  0  0  0  0  0  0  0  0  0  0  0
  -50.0062   59.9983   63.4294 C   0  0  0  0  0  0  0  0  0  0  0  0
  -51.1465   59.5389   62.5215 C   0  0  0  0  0  0  0  0  0  0  0  0
  -51.2087   58.0231   62.3544 C   0  0  0  0  0  0  0  0  0  0  0  0
  -51.2422   57.6198   60.8778 C   0  0  0  0  0  0  0  0  0  0  0  0
  -50.0093   56.8484   60.3914 C   0  0  0  0  0  0  0  0  0  0  0  0
  -48.9701   57.7697   59.7390 C   0  0  0  0  0  0  0  0  0  0  0  0
  -48.3992   57.1904   58.4421 C   0  0  0  0  0  0  0  0  0  0  0  0
  -47.0112   57.7386   58.0892 C   0  0  0  0  0  0  0  0  0  0  0  0
  -46.0440   59.1533   65.4883 C   0  0  0  0  0  0  0  0  0  0  0  0
  -44.5531   58.8661   65.4947 C   0  0  0  0  0  0  0  0  0  0  0  0
  -43.9645   59.0453   66.8909 C   0  0  0  0  0  0  0  0  0  0  0  0
  -42.5061   58.6087   66.9054 C   0  0  0  0  0  0  0  0  0  0  0  0
  -41.9156   58.6371   65.5045 C   0  0  0  0  0  0  0  0  0  0  0  0
  -40.4875   59.1723   65.5205 C   0  0  0  0  0  0  0  0  0  0  0  0
  -40.3502   60.2913   64.5065 C   0  0  0  0  0  0  0  0  0  0  0  0
  -39.2842   60.4228   63.8523 O   0  0  0  0  0  0  0  0  0  0  0  0
  -41.2973   61.0974   64.3159 O   0  0  0  0  0  0  0  0  0  0  0  0
  -42.0947   61.0061   64.7994 H   0  0  0  0  0  0  0  0  0  0  0  0
 18 19  2  0  0  0
 18 17  1  0  0  0
 18 20  1  0  0  0
 17 16  1  0  0  0
 16 15  1  0  0  0
 15 14  1  0  0  0
 14 13  1  0  0  0
 13 12  1  0  0  0
 12  1  1  0  0  0
  1  2  1  0  0  0
  2  3  1  0  0  0
  3  4  1  0  0  0
  4  5  1  0  0  0
  5  6  1  0  0  0
  6  7  1  0  0  0
  7  8  1  0  0  0
  8  9  1  0  0  0
  9 10  1  0  0  0
 10 11  1  0  0  0
 20 21  1  0  0  0
M  END
> <minimizedAffinity>
-7.04972

> <CNNscore>
0.7941287160

> <CNNaffinity>
6.5262193680

> <CNN_VS>
5.1826581955

> <CNNaffinity_variance>
0.2856563032

$$$$



 21 20  0  0  0  0  0  0  0  0999 V2000
  -49.2212   58.3993   59.6726 C   0  0  0  0  0  0  0  0  0  0  0  0
  -49.5686   58.3007   61.1373 C   0  0  0  0  0  0  0  0  0  0  0  0
  -50.9764   58.2402   61.5536 C   0  0  0  0  0  0  0  0  0  0  0  0
  -51.3802   58.6802   62.9431 C   0  0  0  0  0  0  0  0  0  0  0  0
  -50.1462   59.0827   63.7498 C   0  0  0  0  0  0  0  0  0  0  0  0
  -50.3819   59.0663   65.2578 C   0  0  0  0  0  0  0  0  0  0  0  0
  -49.0718   58.8946   66.0312 C   0  0  0  0  0  0  0  0  0  0  0  0
  -47.8615   59.6082   65.4167 C   0  0  0  0  0  0  0  0  0  0  0  0
  -46.5938   59.4309   66.2629 C   0  0  0  0  0  0  0  0  0  0  0  0
  -45.3205   59.3788   65.4146 C   0  0  0  0  0  0  0  0  0  0  0  0
  -45.2075   58.1083   64.5632 C   0  0  0  0  0  0  0  0  0  0  0  0
  -49.3117   57.0002   59.0852 C   0  0  0  0  0  0  0  0  0  0  0  0
  -48.1630   56.7113   58.1353 C   0  0  0  0  0  0  0  0  0  0  0  0
  -47.0982   57.8013   58.2125 C   0  0  0  0  0  0  0  0  0  0  0  0
  -45.7851   57.2174   58.7149 C   0  0  0  0  0  0  0  0  0  0  0  0
  -44.6491   58.2153   58.5545 C   0  0  0  0  0  0  0  0  0  0  0  0
  -44.1329   58.2348   57.1194 C   0  0  0  0  0  0  0  0  0  0  0  0
  -42.7337   58.8181   57.0880 C   0  0  0  0  0  0  0  0  0  0  0  0
  -42.0634   58.7935   56.0241 O   0  0  0  0  0  0  0  0  0  0  0  0
  -42.2322   59.3257   58.1243 O   0  0  0  0  0  0  0  0  0  0  0  0
  -42.7251   59.3478   58.9209 H   0  0  0  0  0  0  0  0  0  0  0  0
 18 19  2  0  0  0
 18 17  1  0  0  0
 18 20  1  0  0  0
 17 16  1  0  0  0
 16 15  1  0  0  0
 15 14  1  0  0  0
 14 13  1  0  0  0
 13 12  1  0  0  0
 12  1  1  0  0  0
  1  2  1  0  0  0
  2  3  1  0  0  0
  3  4  1  0  0  0
  4  5  1  0  0  0
  5  6  1  0  0  0
  6  7  1  0  0  0
  7  8  1  0  0  0
  8  9  1  0  0  0
  9 10  1  0  0  0
 10 11  1  0  0  0
 20 21  1  0  0  0
M  END
> <minimizedAffinity>
-7.22173

> <CNNscore>
0.7534247041

> <CNNaffinity>
6.5761666298

> <CNN_VS>
4.9546465874

> <CNNaffinity_variance>
0.3708959222

$$$$



 21 20  0  0  0  0  0  0  0  0999 V2000
  -42.9484   59.1622   66.3766 C   0  0  0  0  0  0  0  0  0  0  0  0
  -43.3733   57.8064   65.8696 C   0  0  0  0  0  0  0  0  0  0  0  0
  -44.6747   57.2512   66.2658 C   0  0  0  0  0  0  0  0  0  0  0  0
  -45.7539   58.1563   66.8168 C   0  0  0  0  0  0  0  0  0  0  0  0
  -46.9503   57.3285   67.2848 C   0  0  0  0  0  0  0  0  0  0  0  0
  -47.9694   57.0662   66.1792 C   0  0  0  0  0  0  0  0  0  0  0  0
  -48.8339   58.2998   65.9053 C   0  0  0  0  0  0  0  0  0  0  0  0
  -49.3429   58.4240   64.4642 C   0  0  0  0  0  0  0  0  0  0  0  0
  -50.8123   58.8621   64.4048 C   0  0  0  0  0  0  0  0  0  0  0  0
  -51.2572   59.2457   62.9912 C   0  0  0  0  0  0  0  0  0  0  0  0
  -51.1970   58.0802   61.9964 C   0  0  0  0  0  0  0  0  0  0  0  0
  -41.4481   59.2817   66.1627 C   0  0  0  0  0  0  0  0  0  0  0  0
  -40.8851   58.0780   65.4282 C   0  0  0  0  0  0  0  0  0  0  0  0
  -39.6395   58.4532   64.6311 C   0  0  0  0  0  0  0  0  0  0  0  0
  -38.3960   57.8897   65.3048 C   0  0  0  0  0  0  0  0  0  0  0  0
  -37.1380   58.5546   64.7686 C   0  0  0  0  0  0  0  0  0  0  0  0
  -36.3701   57.6143   63.8453 C   0  0  0  0  0  0  0  0  0  0  0  0
  -35.8064   58.3961   62.6747 C   0  0  0  0  0  0  0  0  0  0  0  0
  -36.3951   58.3806   61.5635 O   0  0  0  0  0  0  0  0  0  0  0  0
  -34.7459   59.0607   62.8045 O   0  0  0  0  0  0  0  0  0  0  0  0
  -34.3014   59.0772   63.6292 H   0  0  0  0  0  0  0  0  0  0  0  0
 18 19  2  0  0  0
 18 17  1  0  0  0
 18 20  1  0  0  0
 17 16  1  0  0  0
 16 15  1  0  0  0
 15 14  1  0  0  0
 14 13  1  0  0  0
 13 12  1  0  0  0
 12  1  1  0  0  0
  1  2  1  0  0  0
  2  3  1  0  0  0
  3  4  1  0  0  0
  4  5  1  0  0  0
  5  6  1  0  0  0
  6  7  1  0  0  0
  7  8  1  0  0  0
  8  9  1  0  0  0
  9 10  1  0  0  0
 10 11  1  0  0  0
 20 21  1  0  0  0
M  END
> <minimizedAffinity>
-6.52974

> <CNNscore>
0.7503171563

> <CNNaffinity>
6.4156045914

> <CNN_VS>
4.8137383461

> <CNNaffinity_variance>
0.4935887456

$$$$



 21 20  0  0  0  0  0  0  0  0999 V2000
  -48.0705   58.5690   64.6795 C   0  0  0  0  0  0  0  0  0  0  0  0
  -49.2934   58.2688   65.5102 C   0  0  0  0  0  0  0  0  0  0  0  0
  -50.6264   58.6298   65.0084 C   0  0  0  0  0  0  0  0  0  0  0  0
  -50.8534   59.9683   64.3419 C   0  0  0  0  0  0  0  0  0  0  0  0
  -51.6050   59.7823   63.0244 C   0  0  0  0  0  0  0  0  0  0  0  0
  -51.3648   58.4186   62.3824 C   0  0  0  0  0  0  0  0  0  0  0  0
  -50.3710   58.5094   61.2213 C   0  0  0  0  0  0  0  0  0  0  0  0
  -50.3379   57.2820   60.3027 C   0  0  0  0  0  0  0  0  0  0  0  0
  -49.3158   57.4350   59.1685 C   0  0  0  0  0  0  0  0  0  0  0  0
  -48.1024   56.5174   59.3396 C   0  0  0  0  0  0  0  0  0  0  0  0
  -46.7632   57.2309   59.1179 C   0  0  0  0  0  0  0  0  0  0  0  0
  -47.3018   59.6777   65.3800 C   0  0  0  0  0  0  0  0  0  0  0  0
  -45.9436   59.2032   65.8653 C   0  0  0  0  0  0  0  0  0  0  0  0
  -45.3105   58.2366   64.8689 C   0  0  0  0  0  0  0  0  0  0  0  0
  -44.8945   56.9535   65.5747 C   0  0  0  0  0  0  0  0  0  0  0  0
  -43.7038   57.1965   66.4885 C   0  0  0  0  0  0  0  0  0  0  0  0
  -42.6149   57.9899   65.7735 C   0  0  0  0  0  0  0  0  0  0  0  0
  -42.1266   59.1101   66.6712 C   0  0  0  0  0  0  0  0  0  0  0  0
  -42.8253   59.4873   67.6465 O   0  0  0  0  0  0  0  0  0  0  0  0
  -41.0240   59.6724   66.4450 O   0  0  0  0  0  0  0  0  0  0  0  0
  -40.4976   59.3971   65.7203 H   0  0  0  0  0  0  0  0  0  0  0  0
 18 19  2  0  0  0
 18 17  1  0  0  0
 18 20  1  0  0  0
 17 16  1  0  0  0
 16 15  1  0  0  0
 15 14  1  0  0  0
 14 13  1  0  0  0
 13 12  1  0  0  0
 12  1  1  0  0  0
  1  2  1  0  0  0
  2  3  1  0  0  0
  3  4  1  0  0  0
  4  5  1  0  0  0
  5  6  1  0  0  0
  6  7  1  0  0  0
  7  8  1  0  0  0
  8  9  1  0  0  0
  9 10  1  0  0  0
 10 11  1  0  0  0
 20 21  1  0  0  0
M  END
> <minimizedAffinity>
-7.13324

> <CNNscore>
0.7241176367

> <CNNaffinity>
6.5259618759

> <CNN_VS>
4.7255640030

> <CNNaffinity_variance>
0.4342568517

$$$$



 21 20  0  0  0  0  0  0  0  0999 V2000
  -47.0918   57.5026   65.6808 C   0  0  0  0  0  0  0  0  0  0  0  0
  -46.2766   57.9896   66.8531 C   0  0  0  0  0  0  0  0  0  0  0  0
  -45.0261   58.7251   66.6204 C   0  0  0  0  0  0  0  0  0  0  0  0
  -43.7271   57.9766   66.4210 C   0  0  0  0  0  0  0  0  0  0  0  0
  -42.5773   58.7237   67.0957 C   0  0  0  0  0  0  0  0  0  0  0  0
  -42.0580   59.8987   66.2715 C   0  0  0  0  0  0  0  0  0  0  0  0
  -41.9886   59.5548   64.7812 C   0  0  0  0  0  0  0  0  0  0  0  0
  -41.4426   60.6735   63.8856 C   0  0  0  0  0  0  0  0  0  0  0  0
  -39.9693   60.4536   63.5176 C   0  0  0  0  0  0  0  0  0  0  0  0
  -39.7963   59.7588   62.1644 C   0  0  0  0  0  0  0  0  0  0  0  0
  -40.6042   60.4122   61.0366 C   0  0  0  0  0  0  0  0  0  0  0  0
  -48.2118   58.5050   65.4538 C   0  0  0  0  0  0  0  0  0  0  0  0
  -48.8790   58.3098   64.1040 C   0  0  0  0  0  0  0  0  0  0  0  0
  -50.0836   59.2330   63.9472 C   0  0  0  0  0  0  0  0  0  0  0  0
  -51.1736   58.5408   63.1408 C   0  0  0  0  0  0  0  0  0  0  0  0
  -50.9172   58.6788   61.6484 C   0  0  0  0  0  0  0  0  0  0  0  0
  -51.0374   57.3319   60.9430 C   0  0  0  0  0  0  0  0  0  0  0  0
  -49.6582   56.8304   60.5615 C   0  0  0  0  0  0  0  0  0  0  0  0
  -49.4965   55.6333   60.2119 O   0  0  0  0  0  0  0  0  0  0  0  0
  -48.6672   57.6049   60.5962 O   0  0  0  0  0  0  0  0  0  0  0  0
  -48.7795   58.4982   60.8557 H   0  0  0  0  0  0  0  0  0  0  0  0
 18 19  2  0  0  0
 18 17  1  0  0  0
 18 20  1  0  0  0
 17 16  1  0  0  0
 16 15  1  0  0  0
 15 14  1  0  0  0
 14 13  1  0  0  0
 13 12  1  0  0  0
 12  1  1  0  0  0
  1  2  1  0  0  0
  2  3  1  0  0  0
  3  4  1  0  0  0
  4  5  1  0  0  0
  5  6  1  0  0  0
  6  7  1  0  0  0
  7  8  1  0  0  0
  8  9  1  0  0  0
  9 10  1  0  0  0
 10 11  1  0  0  0
 20 21  1  0  0  0
M  END
> <minimizedAffinity>
-6.38833

> <CNNscore>
0.7218510509

> <CNNaffinity>
6.3433909416

> <CNN_VS>
4.5789833069

> <CNNaffinity_variance>
0.4658365250

$$$$



 21 20  0  0  0  0  0  0  0  0999 V2000
  -51.5943   59.4042   62.7129 C   0  0  0  0  0  0  0  0  0  0  0  0
  -51.0224   59.9117   64.0133 C   0  0  0  0  0  0  0  0  0  0  0  0
  -50.6639   58.9622   65.0758 C   0  0  0  0  0  0  0  0  0  0  0  0
  -49.3660   59.1224   65.8356 C   0  0  0  0  0  0  0  0  0  0  0  0
  -48.4347   57.9460   65.5454 C   0  0  0  0  0  0  0  0  0  0  0  0
  -47.6110   58.1306   64.2738 C   0  0  0  0  0  0  0  0  0  0  0  0
  -46.1086   58.1170   64.5686 C   0  0  0  0  0  0  0  0  0  0  0  0
  -45.6195   59.2495   65.4794 C   0  0  0  0  0  0  0  0  0  0  0  0
  -44.9004   58.7196   66.7270 C   0  0  0  0  0  0  0  0  0  0  0  0
  -43.8509   57.6554   66.3959 C   0  0  0  0  0  0  0  0  0  0  0  0
  -42.5299   58.2415   65.8828 C   0  0  0  0  0  0  0  0  0  0  0  0
  -50.7165   58.2552   62.2439 C   0  0  0  0  0  0  0  0  0  0  0  0
  -51.3138   57.5419   61.0440 C   0  0  0  0  0  0  0  0  0  0  0  0
  -50.4468   57.7325   59.8032 C   0  0  0  0  0  0  0  0  0  0  0  0
  -48.9753   57.5814   60.1630 C   0  0  0  0  0  0  0  0  0  0  0  0
  -48.1241   57.4142   58.9142 C   0  0  0  0  0  0  0  0  0  0  0  0
  -47.9908   55.9435   58.5325 C   0  0  0  0  0  0  0  0  0  0  0  0
  -47.5490   55.8294   57.0865 C   0  0  0  0  0  0  0  0  0  0  0  0
  -47.7038   56.7992   56.3010 O   0  0  0  0  0  0  0  0  0  0  0  0
  -47.0299   54.7649   56.6615 O   0  0  0  0  0  0  0  0  0  0  0  0
  -46.9112   54.0379   57.2406 H   0  0  0  0  0  0  0  0  0  0  0  0
 18 19  2  0  0  0
 18 17  1  0  0  0
 18 20  1  0  0  0
 17 16  1  0  0  0
 16 15  1  0  0  0
 15 14  1  0  0  0
 14 13  1  0  0  0
 13 12  1  0  0  0
 12  1  1  0  0  0
  1  2  1  0  0  0
  2  3  1  0  0  0
  3  4  1  0  0  0
  4  5  1  0  0  0
  5  6  1  0  0  0
  6  7  1  0  0  0
  7  8  1  0  0  0
  8  9  1  0  0  0
  9 10  1  0  0  0
 10 11  1  0  0  0
 20 21  1  0  0  0
M  END
> <minimizedAffinity>
-7.67241

> <CNNscore>
0.6871122122

> <CNNaffinity>
6.6841888428

> <CNN_VS>
4.5927877426

> <CNNaffinity_variance>
0.3886003792

$$$$



 21 20  0  0  0  0  0  0  0  0999 V2000
  -42.2227   59.2471   65.1121 C   0  0  0  0  0  0  0  0  0  0  0  0
  -43.6634   59.6589   65.2870 C   0  0  0  0  0  0  0  0  0  0  0  0
  -44.7363   58.6773   65.0771 C   0  0  0  0  0  0  0  0  0  0  0  0
  -46.1491   58.9854   65.5204 C   0  0  0  0  0  0  0  0  0  0  0  0
  -47.1543   58.2723   64.6169 C   0  0  0  0  0  0  0  0  0  0  0  0
  -48.3658   57.7334   65.3729 C   0  0  0  0  0  0  0  0  0  0  0  0
  -49.3211   58.8579   65.7815 C   0  0  0  0  0  0  0  0  0  0  0  0
  -50.6936   58.8187   65.0987 C   0  0  0  0  0  0  0  0  0  0  0  0
  -50.9286   60.0404   64.2006 C   0  0  0  0  0  0  0  0  0  0  0  0
  -51.7167   59.6986   62.9335 C   0  0  0  0  0  0  0  0  0  0  0  0
  -51.2859   58.3768   62.2863 C   0  0  0  0  0  0  0  0  0  0  0  0
  -41.6003   60.1818   64.0875 C   0  0  0  0  0  0  0  0  0  0  0  0
  -40.2107   59.7265   63.6787 C   0  0  0  0  0  0  0  0  0  0  0  0
  -39.8891   58.3527   64.2594 C   0  0  0  0  0  0  0  0  0  0  0  0
  -38.5232   58.3738   64.9313 C   0  0  0  0  0  0  0  0  0  0  0  0
  -38.3750   59.5954   65.8245 C   0  0  0  0  0  0  0  0  0  0  0  0
  -37.0609   60.3199   65.5515 C   0  0  0  0  0  0  0  0  0  0  0  0
  -37.3230   61.8027   65.3729 C   0  0  0  0  0  0  0  0  0  0  0  0
  -37.6160   62.2596   64.2384 O   0  0  0  0  0  0  0  0  0  0  0  0
  -37.2450   62.5857   66.3547 O   0  0  0  0  0  0  0  0  0  0  0  0
  -37.0272   62.2530   67.2031 H   0  0  0  0  0  0  0  0  0  0  0  0
 18 19  2  0  0  0
 18 17  1  0  0  0
 18 20  1  0  0  0
 17 16  1  0  0  0
 16 15  1  0  0  0
 15 14  1  0  0  0
 14 13  1  0  0  0
 13 12  1  0  0  0
 12  1  1  0  0  0
  1  2  1  0  0  0
  2  3  1  0  0  0
  3  4  1  0  0  0
  4  5  1  0  0  0
  5  6  1  0  0  0
  6  7  1  0  0  0
  7  8  1  0  0  0
  8  9  1  0  0  0
  9 10  1  0  0  0
 10 11  1  0  0  0
 20 21  1  0  0  0
M  END
> <minimizedAffinity>
-6.48372

> <CNNscore>
0.6769308448

> <CNNaffinity>
6.0684304237

> <CNN_VS>
4.1079077721

> <CNNaffinity_variance>
0.1273884326

$$$$
