


 21 20  0  0  0  0  0  0  0  0999 V2000
  -48.5150   59.6166   66.4081 C   0  0  0  0  0  0  0  0  0  0  0  0
  -49.5774   58.6354   65.9786 C   0  0  0  0  0  0  0  0  0  0  0  0
  -50.4863   58.9763   64.8756 C   0  0  0  0  0  0  0  0  0  0  0  0
  -50.1532   58.5661   63.4585 C   0  0  0  0  0  0  0  0  0  0  0  0
  -49.5740   59.7514   62.6871 C   0  0  0  0  0  0  0  0  0  0  0  0
  -49.7537   59.6311   61.1761 C   0  0  0  0  0  0  0  0  0  0  0  0
  -50.1612   58.2128   60.7681 C   0  0  0  0  0  0  0  0  0  0  0  0
  -49.6629   57.7704   59.3870 C   0  0  0  0  0  0  0  0  0  0  0  0
  -48.1328   57.6717   59.3277 C   0  0  0  0  0  0  0  0  0  0  0  0
  -47.6397   56.8628   58.1252 C   0  0  0  0  0  0  0  0  0  0  0  0
  -47.4567   57.7062   56.8576 C   0  0  0  0  0  0  0  0  0  0  0  0
  -47.1845   58.8815   66.4051 C   0  0  0  0  0  0  0  0  0  0  0  0
  -46.6369   58.7112   64.9992 C   0  0  0  0  0  0  0  0  0  0  0  0
  -45.1316   58.4628   65.0216 C   0  0  0  0  0  0  0  0  0  0  0  0
  -44.6188   58.4772   66.4549 C   0  0  0  0  0  0  0  0  0  0  0  0
  -43.0989   58.5071   66.4887 C   0  0  0  0  0  0  0  0  0  0  0  0
  -42.5892   59.7598   67.1941 C   0  0  0  0  0  0  0  0  0  0  0  0
  -41.4379   60.3558   66.4077 C   0  0  0  0  0  0  0  0  0  0  0  0
  -40.6120   59.6035   65.8301 O   0  0  0  0  0  0  0  0  0  0  0  0
  -41.2978   61.6038   66.3311 O   0  0  0  0  0  0  0  0  0  0  0  0
  -41.9090   62.1709   66.7586 H   0  0  0  0  0  0  0  0  0  0  0  0
 18 19  2  0  0  0
 18 17  1  0  0  0
 18 20  1  0  0  0
 17 16  1  0  0  0
 16 15  1  0  0  0
 15 14  1  0  0  0
 14 13  1  0  0  0
 13 12  1  0  0  0
 12  1  1  0  0  0
  1  2  1  0  0  0
  2  3  1  0  0  0
  3  4  1  0  0  0
  4  5  1  0  0  0
  5  6  1  0  0  0
  6  7  1  0  0  0
  7  8  1  0  0  0
  8  9  1  0  0  0
  9 10  1  0  0  0
 10 11  1  0  0  0
 20 21  1  0  0  0
M  END
> <minimizedAffinity>
-7.25012

> <CNNscore>
0.9213830829

> <CNNaffinity>
6.7738494873

> <CNN_VS>
6.2413101196

> <CNNaffinity_variance>
0.1139574051

$$$$



 21 20  0  0  0  0  0  0  0  0999 V2000
  -47.0067   58.5931   66.0004 C   0  0  0  0  0  0  0  0  0  0  0  0
  -47.4422   59.6226   64.9873 C   0  0  0  0  0  0  0  0  0  0  0  0
  -48.8602   59.9936   64.8832 C   0  0  0  0  0  0  0  0  0  0  0  0
  -49.8766   58.9893   64.3875 C   0  0  0  0  0  0  0  0  0  0  0  0
  -49.7251   58.7833   62.8808 C   0  0  0  0  0  0  0  0  0  0  0  0
  -50.9923   58.2523   62.2160 C   0  0  0  0  0  0  0  0  0  0  0  0
  -50.6993   57.6643   60.8331 C   0  0  0  0  0  0  0  0  0  0  0  0
  -49.5394   58.3290   60.0819 C   0  0  0  0  0  0  0  0  0  0  0  0
  -49.1025   57.5166   58.8556 C   0  0  0  0  0  0  0  0  0  0  0  0
  -47.7788   58.0072   58.2636 C   0  0  0  0  0  0  0  0  0  0  0  0
  -47.5239   57.5005   56.8388 C   0  0  0  0  0  0  0  0  0  0  0  0
  -45.8678   57.7971   65.3839 C   0  0  0  0  0  0  0  0  0  0  0  0
  -44.6258   57.8202   66.2569 C   0  0  0  0  0  0  0  0  0  0  0  0
  -43.3573   57.8115   65.4091 C   0  0  0  0  0  0  0  0  0  0  0  0
  -43.0984   59.1987   64.8381 C   0  0  0  0  0  0  0  0  0  0  0  0
  -42.9734   59.1491   63.3235 C   0  0  0  0  0  0  0  0  0  0  0  0
  -42.6523   60.5267   62.7529 C   0  0  0  0  0  0  0  0  0  0  0  0
  -41.1617   60.6392   62.4988 C   0  0  0  0  0  0  0  0  0  0  0  0
  -40.6508   60.0923   61.4881 O   0  0  0  0  0  0  0  0  0  0  0  0
  -40.4260   61.2749   63.2974 O   0  0  0  0  0  0  0  0  0  0  0  0
  -40.7991   61.6852   64.0526 H   0  0  0  0  0  0  0  0  0  0  0  0
 18 19  2  0  0  0
 18 17  1  0  0  0
 18 20  1  0  0  0
 17 16  1  0  0  0
 16 15  1  0  0  0
 15 14  1  0  0  0
 14 13  1  0  0  0
 13 12  1  0  0  0
 12  1  1  0  0  0
  1  2  1  0  0  0
  2  3  1  0  0  0
  3  4  1  0  0  0
  4  5  1  0  0  0
  5  6  1  0  0  0
  6  7  1  0  0  0
  7  8  1  0  0  0
  8  9  1  0  0  0
  9 10  1  0  0  0
 10 11  1  0  0  0
 20 21  1  0  0  0
M  END
> <minimizedAffinity>
-6.60984

> <CNNscore>
0.8924909234

> <CNNaffinity>
7.0574502945

> <CNN_VS>
6.2987103462

> <CNNaffinity_variance>
0.4514287114

$$$$



 21 20  0  0  0  0  0  0  0  0999 V2000
  -45.3114   57.7421   65.3519 C   0  0  0  0  0  0  0  0  0  0  0  0
  -46.5048   58.6620   65.2781 C   0  0  0  0  0  0  0  0  0  0  0  0
  -47.5554   58.5824   66.3023 C   0  0  0  0  0  0  0  0  0  0  0  0
  -48.5577   59.7046   66.4551 C   0  0  0  0  0  0  0  0  0  0  0  0
  -49.2407   59.9894   65.1180 C   0  0  0  0  0  0  0  0  0  0  0  0
  -50.6668   59.4503   65.0443 C   0  0  0  0  0  0  0  0  0  0  0  0
  -51.2404   59.5655   63.6294 C   0  0  0  0  0  0  0  0  0  0  0  0
  -50.6497   58.5824   62.6116 C   0  0  0  0  0  0  0  0  0  0  0  0
  -49.8467   59.2961   61.5160 C   0  0  0  0  0  0  0  0  0  0  0  0
  -49.7237   58.4634   60.2372 C   0  0  0  0  0  0  0  0  0  0  0  0
  -49.8545   56.9546   60.4779 C   0  0  0  0  0  0  0  0  0  0  0  0
  -44.3241   58.3508   66.3345 C   0  0  0  0  0  0  0  0  0  0  0  0
  -43.0722   57.5031   66.4749 C   0  0  0  0  0  0  0  0  0  0  0  0
  -42.6451   56.9259   65.1287 C   0  0  0  0  0  0  0  0  0  0  0  0
  -41.7816   57.9297   64.3776 C   0  0  0  0  0  0  0  0  0  0  0  0
  -42.4717   58.3970   63.1058 C   0  0  0  0  0  0  0  0  0  0  0  0
  -42.9063   59.8546   63.2198 C   0  0  0  0  0  0  0  0  0  0  0  0
  -41.7387   60.7629   62.8869 C   0  0  0  0  0  0  0  0  0  0  0  0
  -41.4990   61.7699   63.6011 O   0  0  0  0  0  0  0  0  0  0  0  0
  -41.0057   60.5195   61.8936 O   0  0  0  0  0  0  0  0  0  0  0  0
  -41.1778   59.7712   61.3566 H   0  0  0  0  0  0  0  0  0  0  0  0
 18 19  2  0  0  0
 18 17  1  0  0  0
 18 20  1  0  0  0
 17 16  1  0  0  0
 16 15  1  0  0  0
 15 14  1  0  0  0
 14 13  1  0  0  0
 13 12  1  0  0  0
 12  1  1  0  0  0
  1  2  1  0  0  0
  2  3  1  0  0  0
  3  4  1  0  0  0
  4  5  1  0  0  0
  5  6  1  0  0  0
  6  7  1  0  0  0
  7  8  1  0  0  0
  8  9  1  0  0  0
  9 10  1  0  0  0
 10 11  1  0  0  0
 20 21  1  0  0  0
M  END
> <minimizedAffinity>
-6.44365

> <CNNscore>
0.8617489338

> <CNNaffinity>
6.7068848610

> <CNN_VS>
5.7796506882

> <CNNaffinity_variance>
0.2520997226

$$$$



 21 20  0  0  0  0  0  0  0  0999 V2000
  -49.0615   58.9762   66.1081 C   0  0  0  0  0  0  0  0  0  0  0  0
  -50.5444   59.0706   65.8474 C   0  0  0  0  0  0  0  0  0  0  0  0
  -51.0476   59.9641   64.7951 C   0  0  0  0  0  0  0  0  0  0  0  0
  -51.2856   59.4376   63.3974 C   0  0  0  0  0  0  0  0  0  0  0  0
  -50.0437   59.6520   62.5329 C   0  0  0  0  0  0  0  0  0  0  0  0
  -49.4842   58.3561   61.9521 C   0  0  0  0  0  0  0  0  0  0  0  0
  -50.3991   57.7842   60.8658 C   0  0  0  0  0  0  0  0  0  0  0  0
  -49.6695   57.1763   59.6618 C   0  0  0  0  0  0  0  0  0  0  0  0
  -48.4742   58.0299   59.2178 C   0  0  0  0  0  0  0  0  0  0  0  0
  -47.4604   57.2390   58.3869 C   0  0  0  0  0  0  0  0  0  0  0  0
  -47.1402   57.8899   57.0358 C   0  0  0  0  0  0  0  0  0  0  0  0
  -48.6201   57.5692   65.7387 C   0  0  0  0  0  0  0  0  0  0  0  0
  -47.1256   57.3788   65.9269 C   0  0  0  0  0  0  0  0  0  0  0  0
  -46.4591   58.6738   66.3815 C   0  0  0  0  0  0  0  0  0  0  0  0
  -44.9609   58.4621   66.5489 C   0  0  0  0  0  0  0  0  0  0  0  0
  -44.3869   57.6835   65.3757 C   0  0  0  0  0  0  0  0  0  0  0  0
  -43.0284   57.0845   65.7253 C   0  0  0  0  0  0  0  0  0  0  0  0
  -42.4511   56.3849   64.5102 C   0  0  0  0  0  0  0  0  0  0  0  0
  -42.4131   56.9757   63.4006 O   0  0  0  0  0  0  0  0  0  0  0  0
  -42.0111   55.2097   64.6015 O   0  0  0  0  0  0  0  0  0  0  0  0
  -42.0359   54.7628   65.4247 H   0  0  0  0  0  0  0  0  0  0  0  0
 18 19  2  0  0  0
 18 17  1  0  0  0
 18 20  1  0  0  0
 17 16  1  0  0  0
 16 15  1  0  0  0
 15 14  1  0  0  0
 14 13  1  0  0  0
 13 12  1  0  0  0
 12  1  1  0  0  0
  1  2  1  0  0  0
  2  3  1  0  0  0
  3  4  1  0  0  0
  4  5  1  0  0  0
  5  6  1  0  0  0
  6  7  1  0  0  0
  7  8  1  0  0  0
  8  9  1  0  0  0
  9 10  1  0  0  0
 10 11  1  0  0  0
 20 21  1  0  0  0
M  END
> <minimizedAffinity>
-7.35490

> <CNNscore>
0.7798953056

> <CNNaffinity>
6.9011182785

> <CNN_VS>
5.3821496964

> <CNNaffinity_variance>
0.3332335949

$$$$



 21 20  0  0  0  0  0  0  0  0999 V2000
  -49.2561   58.5624   66.0016 C   0  0  0  0  0  0  0  0  0  0  0  0
  -50.5896   58.8246   65.3467 C   0  0  0  0  0  0  0  0  0  0  0  0
  -50.6728   59.7273   64.1904 C   0  0  0  0  0  0  0  0  0  0  0  0
  -51.1371   59.2066   62.8485 C   0  0  0  0  0  0  0  0  0  0  0  0
  -50.1173   58.2189   62.2829 C   0  0  0  0  0  0  0  0  0  0  0  0
  -50.6246   57.4681   61.0546 C   0  0  0  0  0  0  0  0  0  0  0  0
  -50.1600   58.1328   59.7560 C   0  0  0  0  0  0  0  0  0  0  0  0
  -48.6435   58.1169   59.5296 C   0  0  0  0  0  0  0  0  0  0  0  0
  -48.1053   56.6964   59.3127 C   0  0  0  0  0  0  0  0  0  0  0  0
  -47.3188   56.5563   58.0068 C   0  0  0  0  0  0  0  0  0  0  0  0
  -47.1367   57.8833   57.2601 C   0  0  0  0  0  0  0  0  0  0  0  0
  -48.2485   59.5218   65.3889 C   0  0  0  0  0  0  0  0  0  0  0  0
  -47.1334   58.7850   64.6686 C   0  0  0  0  0  0  0  0  0  0  0  0
  -46.4137   57.8223   65.6083 C   0  0  0  0  0  0  0  0  0  0  0  0
  -45.5013   58.5937   66.5517 C   0  0  0  0  0  0  0  0  0  0  0  0
  -44.0788   58.6398   66.0165 C   0  0  0  0  0  0  0  0  0  0  0  0
  -43.3266   57.3537   66.3428 C   0  0  0  0  0  0  0  0  0  0  0  0
  -42.7024   56.7928   65.0799 C   0  0  0  0  0  0  0  0  0  0  0  0
  -42.1161   57.5581   64.2723 O   0  0  0  0  0  0  0  0  0  0  0  0
  -42.7700   55.5618   64.8288 O   0  0  0  0  0  0  0  0  0  0  0  0
  -43.2052   54.9852   65.4256 H   0  0  0  0  0  0  0  0  0  0  0  0
 18 19  2  0  0  0
 18 17  1  0  0  0
 18 20  1  0  0  0
 17 16  1  0  0  0
 16 15  1  0  0  0
 15 14  1  0  0  0
 14 13  1  0  0  0
 13 12  1  0  0  0
 12  1  1  0  0  0
  1  2  1  0  0  0
  2  3  1  0  0  0
  3  4  1  0  0  0
  4  5  1  0  0  0
  5  6  1  0  0  0
  6  7  1  0  0  0
  7  8  1  0  0  0
  8  9  1  0  0  0
  9 10  1  0  0  0
 10 11  1  0  0  0
 20 21  1  0  0  0
M  END
> <minimizedAffinity>
-7.43527

> <CNNscore>
0.7636704445

> <CNNaffinity>
6.7969985008

> <CNN_VS>
5.1906666756

> <CNNaffinity_variance>
0.2374872267

$$$$



 21 20  0  0  0  0  0  0  0  0999 V2000
  -47.1752   58.7657   65.8242 C   0  0  0  0  0  0  0  0  0  0  0  0
  -47.5777   59.1090   64.4114 C   0  0  0  0  0  0  0  0  0  0  0  0
  -48.4665   60.2517   64.1602 C   0  0  0  0  0  0  0  0  0  0  0  0
  -49.9469   60.1445   64.4506 C   0  0  0  0  0  0  0  0  0  0  0  0
  -50.4786   58.7868   63.9928 C   0  0  0  0  0  0  0  0  0  0  0  0
  -51.2228   58.8503   62.6617 C   0  0  0  0  0  0  0  0  0  0  0  0
  -50.5233   58.0168   61.5846 C   0  0  0  0  0  0  0  0  0  0  0  0
  -49.5831   58.8071   60.6665 C   0  0  0  0  0  0  0  0  0  0  0  0
  -49.1866   58.0082   59.4178 C   0  0  0  0  0  0  0  0  0  0  0  0
  -47.9892   57.0863   59.6626 C   0  0  0  0  0  0  0  0  0  0  0  0
  -47.4567   56.4273   58.3844 C   0  0  0  0  0  0  0  0  0  0  0  0
  -45.8601   58.0064   65.7541 C   0  0  0  0  0  0  0  0  0  0  0  0
  -44.8688   58.4974   66.7941 C   0  0  0  0  0  0  0  0  0  0  0  0
  -43.4556   58.5566   66.2221 C   0  0  0  0  0  0  0  0  0  0  0  0
  -42.6346   59.6052   66.9596 C   0  0  0  0  0  0  0  0  0  0  0  0
  -41.2070   59.6446   66.4376 C   0  0  0  0  0  0  0  0  0  0  0  0
  -41.1454   59.2236   64.9729 C   0  0  0  0  0  0  0  0  0  0  0  0
  -40.1137   58.1258   64.8002 C   0  0  0  0  0  0  0  0  0  0  0  0
  -40.3511   57.1503   64.0429 O   0  0  0  0  0  0  0  0  0  0  0  0
  -39.0174   58.1801   65.4152 O   0  0  0  0  0  0  0  0  0  0  0  0
  -38.8331   58.9036   65.9813 H   0  0  0  0  0  0  0  0  0  0  0  0
 18 19  2  0  0  0
 18 17  1  0  0  0
 18 20  1  0  0  0
 17 16  1  0  0  0
 16 15  1  0  0  0
 15 14  1  0  0  0
 14 13  1  0  0  0
 13 12  1  0  0  0
 12  1  1  0  0  0
  1  2  1  0  0  0
  2  3  1  0  0  0
  3  4  1  0  0  0
  4  5  1  0  0  0
  5  6  1  0  0  0
  6  7  1  0  0  0
  7  8  1  0  0  0
  8  9  1  0  0  0
  9 10  1  0  0  0
 10 11  1  0  0  0
 20 21  1  0  0  0
M  END
> <minimizedAffinity>
-6.49323

> <CNNscore>
0.7152169347

> <CNNaffinity>
6.5234274864

> <CNN_VS>
4.6656656265

> <CNNaffinity_variance>
0.2330749929

$$$$



 21 20  0  0  0  0  0  0  0  0999 V2000
  -48.2753   59.4614   66.5530 C   0  0  0  0  0  0  0  0  0  0  0  0
  -47.2569   58.5261   67.1565 C   0  0  0  0  0  0  0  0  0  0  0  0
  -45.8243   58.8329   67.0452 C   0  0  0  0  0  0  0  0  0  0  0  0
  -44.8671   57.8088   66.4774 C   0  0  0  0  0  0  0  0  0  0  0  0
  -43.5954   58.4934   65.9777 C   0  0  0  0  0  0  0  0  0  0  0  0
  -42.3402   57.6476   66.1746 C   0  0  0  0  0  0  0  0  0  0  0  0
  -41.6611   57.3278   64.8402 C   0  0  0  0  0  0  0  0  0  0  0  0
  -42.2438   56.1225   64.0922 C   0  0  0  0  0  0  0  0  0  0  0  0
  -41.3643   55.6943   62.9100 C   0  0  0  0  0  0  0  0  0  0  0  0
  -40.7733   56.8859   62.1520 C   0  0  0  0  0  0  0  0  0  0  0  0
  -41.7357   57.4911   61.1229 C   0  0  0  0  0  0  0  0  0  0  0  0
  -48.0781   59.4423   65.0458 C   0  0  0  0  0  0  0  0  0  0  0  0
  -48.9925   58.4364   64.3696 C   0  0  0  0  0  0  0  0  0  0  0  0
  -50.4482   58.8895   64.4293 C   0  0  0  0  0  0  0  0  0  0  0  0
  -50.9874   59.1094   63.0228 C   0  0  0  0  0  0  0  0  0  0  0  0
  -50.3761   58.1186   62.0446 C   0  0  0  0  0  0  0  0  0  0  0  0
  -49.8550   58.8268   60.7983 C   0  0  0  0  0  0  0  0  0  0  0  0
  -49.1112   57.8375   59.9224 C   0  0  0  0  0  0  0  0  0  0  0  0
  -49.2799   56.6016   60.0826 O   0  0  0  0  0  0  0  0  0  0  0  0
  -48.3181   58.2444   59.0343 O   0  0  0  0  0  0  0  0  0  0  0  0
  -48.1870   59.1636   58.9088 H   0  0  0  0  0  0  0  0  0  0  0  0
 18 19  2  0  0  0
 18 17  1  0  0  0
 18 20  1  0  0  0
 17 16  1  0  0  0
 16 15  1  0  0  0
 15 14  1  0  0  0
 14 13  1  0  0  0
 13 12  1  0  0  0
 12  1  1  0  0  0
  1  2  1  0  0  0
  2  3  1  0  0  0
  3  4  1  0  0  0
  4  5  1  0  0  0
  5  6  1  0  0  0
  6  7  1  0  0  0
  7  8  1  0  0  0
  8  9  1  0  0  0
  9 10  1  0  0  0
 10 11  1  0  0  0
 20 21  1  0  0  0
M  END
> <minimizedAffinity>
-6.53493

> <CNNscore>
0.7025673985

> <CNNaffinity>
6.6375770569

> <CNN_VS>
4.6633453369

> <CNNaffinity_variance>
0.3492640853

$$$$



 21 20  0  0  0  0  0  0  0  0999 V2000
  -50.4310   60.0309   64.0113 C   0  0  0  0  0  0  0  0  0  0  0  0
  -50.7976   59.5880   65.4061 C   0  0  0  0  0  0  0  0  0  0  0  0
  -50.2231   58.3530   65.9571 C   0  0  0  0  0  0  0  0  0  0  0  0
  -48.7282   58.1261   65.9230 C   0  0  0  0  0  0  0  0  0  0  0  0
  -48.0036   59.2683   66.6341 C   0  0  0  0  0  0  0  0  0  0  0  0
  -46.6433   58.8612   67.1940 C   0  0  0  0  0  0  0  0  0  0  0  0
  -46.0321   57.7018   66.4026 C   0  0  0  0  0  0  0  0  0  0  0  0
  -45.0417   58.1186   65.3086 C   0  0  0  0  0  0  0  0  0  0  0  0
  -43.5931   57.7705   65.6759 C   0  0  0  0  0  0  0  0  0  0  0  0
  -42.6990   59.0082   65.7880 C   0  0  0  0  0  0  0  0  0  0  0  0
  -42.4966   59.4845   67.2316 C   0  0  0  0  0  0  0  0  0  0  0  0
  -51.4765   59.4677   63.0623 C   0  0  0  0  0  0  0  0  0  0  0  0
  -50.9715   58.2354   62.3332 C   0  0  0  0  0  0  0  0  0  0  0  0
  -49.5239   58.4156   61.8860 C   0  0  0  0  0  0  0  0  0  0  0  0
  -49.4777   58.9881   60.4762 C   0  0  0  0  0  0  0  0  0  0  0  0
  -49.5724   57.8826   59.4365 C   0  0  0  0  0  0  0  0  0  0  0  0
  -48.3033   57.8104   58.5936 C   0  0  0  0  0  0  0  0  0  0  0  0
  -47.8717   56.3646   58.4434 C   0  0  0  0  0  0  0  0  0  0  0  0
  -47.7733   55.6269   59.4571 O   0  0  0  0  0  0  0  0  0  0  0  0
  -47.6052   55.8946   57.3071 O   0  0  0  0  0  0  0  0  0  0  0  0
  -47.6761   56.4379   56.5470 H   0  0  0  0  0  0  0  0  0  0  0  0
 18 19  2  0  0  0
 18 17  1  0  0  0
 18 20  1  0  0  0
 17 16  1  0  0  0
 16 15  1  0  0  0
 15 14  1  0  0  0
 14 13  1  0  0  0
 13 12  1  0  0  0
 12  1  1  0  0  0
  1  2  1  0  0  0
  2  3  1  0  0  0
  3  4  1  0  0  0
  4  5  1  0  0  0
  5  6  1  0  0  0
  6  7  1  0  0  0
  7  8  1  0  0  0
  8  9  1  0  0  0
  9 10  1  0  0  0
 10 11  1  0  0  0
 20 21  1  0  0  0
M  END
> <minimizedAffinity>
-7.31483

> <CNNscore>
0.6878843904

> <CNNaffinity>
6.6457605362

> <CNN_VS>
4.5715150833

> <CNNaffinity_variance>
0.1474926174

$$$$



 21 20  0  0  0  0  0  0  0  0999 V2000
  -48.9136   59.5584   63.7275 C   0  0  0  0  0  0  0  0  0  0  0  0
  -48.7305   60.2946   65.0314 C   0  0  0  0  0  0  0  0  0  0  0  0
  -48.7338   59.5512   66.2988 C   0  0  0  0  0  0  0  0  0  0  0  0
  -47.8600   58.3283   66.4677 C   0  0  0  0  0  0  0  0  0  0  0  0
  -46.7390   58.6133   67.4665 C   0  0  0  0  0  0  0  0  0  0  0  0
  -45.3645   58.7242   66.8121 C   0  0  0  0  0  0  0  0  0  0  0  0
  -45.3005   57.9398   65.4988 C   0  0  0  0  0  0  0  0  0  0  0  0
  -43.9420   57.2953   65.1977 C   0  0  0  0  0  0  0  0  0  0  0  0
  -42.7947   58.3131   65.2466 C   0  0  0  0  0  0  0  0  0  0  0  0
  -42.5433   58.9845   63.8940 C   0  0  0  0  0  0  0  0  0  0  0  0
  -42.7506   58.0450   62.6998 C   0  0  0  0  0  0  0  0  0  0  0  0
  -50.4032   59.5244   63.4260 C   0  0  0  0  0  0  0  0  0  0  0  0
  -50.7113   58.6881   62.1967 C   0  0  0  0  0  0  0  0  0  0  0  0
  -49.6284   58.8519   61.1345 C   0  0  0  0  0  0  0  0  0  0  0  0
  -49.2103   57.4903   60.5970 C   0  0  0  0  0  0  0  0  0  0  0  0
  -48.8930   57.5656   59.1118 C   0  0  0  0  0  0  0  0  0  0  0  0
  -47.7563   56.6176   58.7437 C   0  0  0  0  0  0  0  0  0  0  0  0
  -47.4536   56.7343   57.2626 C   0  0  0  0  0  0  0  0  0  0  0  0
  -47.7371   57.7907   56.6419 O   0  0  0  0  0  0  0  0  0  0  0  0
  -46.9221   55.7762   56.6440 O   0  0  0  0  0  0  0  0  0  0  0  0
  -46.7079   54.9858   57.0993 H   0  0  0  0  0  0  0  0  0  0  0  0
 18 19  2  0  0  0
 18 17  1  0  0  0
 18 20  1  0  0  0
 17 16  1  0  0  0
 16 15  1  0  0  0
 15 14  1  0  0  0
 14 13  1  0  0  0
 13 12  1  0  0  0
 12  1  1  0  0  0
  1  2  1  0  0  0
  2  3  1  0  0  0
  3  4  1  0  0  0
  4  5  1  0  0  0
  5  6  1  0  0  0
  6  7  1  0  0  0
  7  8  1  0  0  0
  8  9  1  0  0  0
  9 10  1  0  0  0
 10 11  1  0  0  0
 20 21  1  0  0  0
M  END
> <minimizedAffinity>
-6.75006

> <CNNscore>
0.6663157940

> <CNNaffinity>
6.7286481857

> <CNN_VS>
4.4834046364

> <CNNaffinity_variance>
0.3456000686

$$$$
