


 25 25  0  0  0  0  0  0  0  0999 V2000
  -50.9926   57.8431   61.3767 C   0  0  0  0  0  0  0  0  0  0  0  0
  -50.3827   58.7241   62.4771 C   0  0  0  0  0  0  0  0  0  0  0  0
  -51.3419   59.8457   62.8514 C   0  0  0  0  0  0  0  0  0  0  0  0
  -51.1419   60.2153   64.3216 C   0  0  0  0  0  0  0  0  0  0  0  0
  -50.3578   59.1166   65.0389 C   0  0  0  0  0  0  0  0  0  0  0  0
  -48.0799   60.2742   65.7788 C   0  0  0  0  0  0  0  0  0  0  0  0
  -49.5006   59.7818   66.1172 C   0  0  0  0  0  0  0  0  0  0  0  0
  -47.4293   60.0129   64.4116 C   0  0  0  0  0  0  0  0  0  0  0  0
  -46.1274   60.8260   64.3660 C   0  0  0  0  0  0  0  0  0  0  0  0
  -45.3492   61.0527   63.0477 C   0  0  0  0  0  0  0  0  0  0  0  0
  -45.8573   60.5046   61.6998 C   0  0  0  0  0  0  0  0  0  0  0  0
  -48.1250   61.0860   60.7261 C   0  0  0  0  0  0  0  0  0  0  0  0
  -46.7204   61.5977   61.0550 C   0  0  0  0  0  0  0  0  0  0  0  0
  -50.1214   57.7696   60.0959 C   0  0  0  0  0  0  0  0  0  0  0  0
  -48.6458   57.4051   60.3838 C   0  0  0  0  0  0  0  0  0  0  0  0
  -46.3775   58.5057   57.6637 C   0  0  0  0  0  0  0  0  0  0  0  0
  -46.2874   57.3542   56.8705 C   0  0  0  0  0  0  0  0  0  0  0  0
  -47.1647   58.5075   58.8214 C   0  0  0  0  0  0  0  0  0  0  0  0
  -46.9922   56.2151   57.2593 C   0  0  0  0  0  0  0  0  0  0  0  0
  -47.7680   56.2214   58.4174 C   0  0  0  0  0  0  0  0  0  0  0  0
  -47.8465   57.3570   59.2336 C   0  0  0  0  0  0  0  0  0  0  0  0
  -46.9599   55.0628   56.5460 O   0  0  0  0  0  0  0  0  0  0  0  0
  -48.4338   55.0815   58.7625 O   0  0  0  0  0  0  0  0  0  0  0  0
  -46.4517   55.0121   55.7605 H   0  0  0  0  0  0  0  0  0  0  0  0
  -48.3796   54.3232   58.2147 H   0  0  0  0  0  0  0  0  0  0  0  0
 12 13  1  0  0  0
  9 10  2  0  0  0
  9  8  1  0  0  0
  6  7  2  0  0  0
  6  8  1  0  0  0
 10 11  1  0  0  0
  7  5  1  0  0  0
 16 17  2  0  0  0
 16 18  1  0  0  0
 17 19  1  0  0  0
 18 21  2  0  0  0
 13 11  1  0  0  0
  5  4  1  0  0  0
  4  3  1  0  0  0
  3  2  1  0  0  0
  2  1  1  0  0  0
  1 14  1  0  0  0
 14 15  1  0  0  0
 15 21  1  0  0  0
 19 20  2  0  0  0
 19 22  1  0  0  0
 20 21  1  0  0  0
 20 23  1  0  0  0
 22 24  1  0  0  0
 23 25  1  0  0  0
M  END
> <minimizedAffinity>
-8.43719

> <CNNscore>
0.6315256953

> <CNNaffinity>
6.9637689590

> <CNN_VS>
4.3977990150

> <CNNaffinity_variance>
0.1005864590

$$$$



 25 25  0  0  0  0  0  0  0  0999 V2000
  -46.9470   59.4459   59.1328 C   0  0  0  0  0  0  0  0  0  0  0  0
  -46.9461   58.9463   57.6804 C   0  0  0  0  0  0  0  0  0  0  0  0
  -46.0182   57.7484   57.5318 C   0  0  0  0  0  0  0  0  0  0  0  0
  -46.6842   56.6976   56.6428 C   0  0  0  0  0  0  0  0  0  0  0  0
  -48.1011   56.4096   57.1387 C   0  0  0  0  0  0  0  0  0  0  0  0
  -48.8945   56.1521   59.6647 C   0  0  0  0  0  0  0  0  0  0  0  0
  -47.9889   55.7146   58.4968 C   0  0  0  0  0  0  0  0  0  0  0  0
  -49.8390   57.3592   59.5576 C   0  0  0  0  0  0  0  0  0  0  0  0
  -50.8962   57.2073   60.6611 C   0  0  0  0  0  0  0  0  0  0  0  0
  -50.7400   57.8847   62.0436 C   0  0  0  0  0  0  0  0  0  0  0  0
  -49.5305   58.7797   62.3779 C   0  0  0  0  0  0  0  0  0  0  0  0
  -51.5735   60.1133   63.0680 C   0  0  0  0  0  0  0  0  0  0  0  0
  -50.0744   60.1623   62.7630 C   0  0  0  0  0  0  0  0  0  0  0  0
  -46.0197   58.6240   60.0652 C   0  0  0  0  0  0  0  0  0  0  0  0
  -46.0410   59.1160   61.5318 C   0  0  0  0  0  0  0  0  0  0  0  0
  -44.7384   62.5819   61.7458 C   0  0  0  0  0  0  0  0  0  0  0  0
  -43.4177   62.3755   62.1659 C   0  0  0  0  0  0  0  0  0  0  0  0
  -45.5929   61.4928   61.5372 C   0  0  0  0  0  0  0  0  0  0  0  0
  -42.9766   61.0688   62.3740 C   0  0  0  0  0  0  0  0  0  0  0  0
  -43.8350   59.9893   62.1720 C   0  0  0  0  0  0  0  0  0  0  0  0
  -45.1651   60.1821   61.7773 C   0  0  0  0  0  0  0  0  0  0  0  0
  -41.7141   60.7844   62.7776 O   0  0  0  0  0  0  0  0  0  0  0  0
  -43.3619   58.7292   62.3956 O   0  0  0  0  0  0  0  0  0  0  0  0
  -41.1022   61.4784   62.9259 H   0  0  0  0  0  0  0  0  0  0  0  0
  -42.4718   58.6029   62.6595 H   0  0  0  0  0  0  0  0  0  0  0  0
 12 13  1  0  0  0
  9 10  2  0  0  0
  9  8  1  0  0  0
  6  7  2  0  0  0
  6  8  1  0  0  0
 10 11  1  0  0  0
  7  5  1  0  0  0
 16 17  2  0  0  0
 16 18  1  0  0  0
 17 19  1  0  0  0
 18 21  2  0  0  0
 13 11  1  0  0  0
  5  4  1  0  0  0
  4  3  1  0  0  0
  3  2  1  0  0  0
  2  1  1  0  0  0
  1 14  1  0  0  0
 14 15  1  0  0  0
 15 21  1  0  0  0
 19 20  2  0  0  0
 19 22  1  0  0  0
 20 21  1  0  0  0
 20 23  1  0  0  0
 22 24  1  0  0  0
 23 25  1  0  0  0
M  END
> <minimizedAffinity>
-8.29422

> <CNNscore>
0.5159755945

> <CNNaffinity>
6.4185247421

> <CNN_VS>
3.3118021488

> <CNNaffinity_variance>
0.0551169291

$$$$



 25 25  0  0  0  0  0  0  0  0999 V2000
  -47.5004   56.6139   57.0962 C   0  0  0  0  0  0  0  0  0  0  0  0
  -47.6669   55.6944   58.3151 C   0  0  0  0  0  0  0  0  0  0  0  0
  -48.8455   56.1485   59.1654 C   0  0  0  0  0  0  0  0  0  0  0  0
  -49.5906   57.2709   58.4422 C   0  0  0  0  0  0  0  0  0  0  0  0
  -50.2518   58.2034   59.4570 C   0  0  0  0  0  0  0  0  0  0  0  0
  -50.4852   58.3092   62.1048 C   0  0  0  0  0  0  0  0  0  0  0  0
  -50.2373   57.5011   60.8160 C   0  0  0  0  0  0  0  0  0  0  0  0
  -50.6296   59.8388   62.0944 C   0  0  0  0  0  0  0  0  0  0  0  0
  -51.7088   60.1996   63.1255 C   0  0  0  0  0  0  0  0  0  0  0  0
  -51.3843   60.3541   64.6307 C   0  0  0  0  0  0  0  0  0  0  0  0
  -49.9514   60.1895   65.1740 C   0  0  0  0  0  0  0  0  0  0  0  0
  -49.2513   57.8074   65.6880 C   0  0  0  0  0  0  0  0  0  0  0  0
  -49.9782   59.0518   66.2038 C   0  0  0  0  0  0  0  0  0  0  0  0
  -46.2493   57.5262   57.1817 C   0  0  0  0  0  0  0  0  0  0  0  0
  -45.7789   57.7792   58.6336 C   0  0  0  0  0  0  0  0  0  0  0  0
  -47.6577   60.9492   59.0537 C   0  0  0  0  0  0  0  0  0  0  0  0
  -47.6948   61.0878   60.4475 C   0  0  0  0  0  0  0  0  0  0  0  0
  -47.0169   59.8505   58.4688 C   0  0  0  0  0  0  0  0  0  0  0  0
  -47.0861   60.1108   61.2351 C   0  0  0  0  0  0  0  0  0  0  0  0
  -46.4566   59.0153   60.6464 C   0  0  0  0  0  0  0  0  0  0  0  0
  -46.4343   58.8505   59.2556 C   0  0  0  0  0  0  0  0  0  0  0  0
  -47.0757   60.1727   62.5892 O   0  0  0  0  0  0  0  0  0  0  0  0
  -45.8814   58.0806   61.4570 O   0  0  0  0  0  0  0  0  0  0  0  0
  -47.4867   60.8910   63.0286 H   0  0  0  0  0  0  0  0  0  0  0  0
  -45.8977   58.1932   62.3871 H   0  0  0  0  0  0  0  0  0  0  0  0
 12 13  1  0  0  0
  9 10  2  0  0  0
  9  8  1  0  0  0
  6  7  2  0  0  0
  6  8  1  0  0  0
 10 11  1  0  0  0
  7  5  1  0  0  0
 16 17  2  0  0  0
 16 18  1  0  0  0
 17 19  1  0  0  0
 18 21  2  0  0  0
 13 11  1  0  0  0
  5  4  1  0  0  0
  4  3  1  0  0  0
  3  2  1  0  0  0
  2  1  1  0  0  0
  1 14  1  0  0  0
 14 15  1  0  0  0
 15 21  1  0  0  0
 19 20  2  0  0  0
 19 22  1  0  0  0
 20 21  1  0  0  0
 20 23  1  0  0  0
 22 24  1  0  0  0
 23 25  1  0  0  0
M  END
> <minimizedAffinity>
-8.80532

> <CNNscore>
0.4390015006

> <CNNaffinity>
6.4423475266

> <CNN_VS>
2.8282003403

> <CNNaffinity_variance>
0.2356086969

$$$$



 25 25  0  0  0  0  0  0  0  0999 V2000
  -49.5998   60.5386   60.4962 C   0  0  0  0  0  0  0  0  0  0  0  0
  -49.4750   60.1832   61.9853 C   0  0  0  0  0  0  0  0  0  0  0  0
  -50.6746   59.3618   62.4372 C   0  0  0  0  0  0  0  0  0  0  0  0
  -51.6228   60.2495   63.2439 C   0  0  0  0  0  0  0  0  0  0  0  0
  -51.1965   60.2785   64.7116 C   0  0  0  0  0  0  0  0  0  0  0  0
  -49.2061   58.9329   65.8535 C   0  0  0  0  0  0  0  0  0  0  0  0
  -50.5049   58.9502   65.0238 C   0  0  0  0  0  0  0  0  0  0  0  0
  -48.4967   60.2250   66.2868 C   0  0  0  0  0  0  0  0  0  0  0  0
  -46.9882   59.9374   66.2835 C   0  0  0  0  0  0  0  0  0  0  0  0
  -46.0791   60.3468   65.1001 C   0  0  0  0  0  0  0  0  0  0  0  0
  -46.6315   61.0988   63.8734 C   0  0  0  0  0  0  0  0  0  0  0  0
  -45.9128   62.6879   62.0332 C   0  0  0  0  0  0  0  0  0  0  0  0
  -45.4982   61.9749   63.3226 C   0  0  0  0  0  0  0  0  0  0  0  0
  -48.2355   60.8251   59.8170 C   0  0  0  0  0  0  0  0  0  0  0  0
  -47.1668   59.7484   60.1204 C   0  0  0  0  0  0  0  0  0  0  0  0
  -46.5689   57.9202   56.9493 C   0  0  0  0  0  0  0  0  0  0  0  0
  -47.1412   56.6696   57.2173 C   0  0  0  0  0  0  0  0  0  0  0  0
  -46.5885   58.9296   57.9192 C   0  0  0  0  0  0  0  0  0  0  0  0
  -47.7241   56.4523   58.4656 C   0  0  0  0  0  0  0  0  0  0  0  0
  -47.7332   57.4592   59.4295 C   0  0  0  0  0  0  0  0  0  0  0  0
  -47.1421   58.7053   59.1848 C   0  0  0  0  0  0  0  0  0  0  0  0
  -48.3007   55.2725   58.8022 O   0  0  0  0  0  0  0  0  0  0  0  0
  -48.3079   57.1986   60.6393 O   0  0  0  0  0  0  0  0  0  0  0  0
  -48.3180   54.5669   58.1859 H   0  0  0  0  0  0  0  0  0  0  0  0
  -48.7027   56.3643   60.8005 H   0  0  0  0  0  0  0  0  0  0  0  0
 12 13  1  0  0  0
  9 10  2  0  0  0
  9  8  1  0  0  0
  6  7  2  0  0  0
  6  8  1  0  0  0
 10 11  1  0  0  0
  7  5  1  0  0  0
 16 17  2  0  0  0
 16 18  1  0  0  0
 17 19  1  0  0  0
 18 21  2  0  0  0
 13 11  1  0  0  0
  5  4  1  0  0  0
  4  3  1  0  0  0
  3  2  1  0  0  0
  2  1  1  0  0  0
  1 14  1  0  0  0
 14 15  1  0  0  0
 15 21  1  0  0  0
 19 20  2  0  0  0
 19 22  1  0  0  0
 20 21  1  0  0  0
 20 23  1  0  0  0
 22 24  1  0  0  0
 23 25  1  0  0  0
M  END
> <minimizedAffinity>
-8.41152

> <CNNscore>
0.4380202293

> <CNNaffinity>
6.4960184097

> <CNN_VS>
2.8453874588

> <CNNaffinity_variance>
0.1859756410

$$$$



 25 25  0  0  0  0  0  0  0  0999 V2000
  -49.4687   60.2634   61.7826 C   0  0  0  0  0  0  0  0  0  0  0  0
  -50.5570   59.3012   62.2813 C   0  0  0  0  0  0  0  0  0  0  0  0
  -51.6315   60.0644   63.0435 C   0  0  0  0  0  0  0  0  0  0  0  0
  -51.1344   60.3642   64.4581 C   0  0  0  0  0  0  0  0  0  0  0  0
  -50.3900   59.1542   65.0223 C   0  0  0  0  0  0  0  0  0  0  0  0
  -48.2861   60.1797   66.2866 C   0  0  0  0  0  0  0  0  0  0  0  0
  -49.7089   59.5884   66.3214 C   0  0  0  0  0  0  0  0  0  0  0  0
  -47.4593   60.2420   64.9930 C   0  0  0  0  0  0  0  0  0  0  0  0
  -45.9790   60.2606   65.4013 C   0  0  0  0  0  0  0  0  0  0  0  0
  -45.1248   58.9709   65.4433 C   0  0  0  0  0  0  0  0  0  0  0  0
  -45.7035   57.5997   65.0429 C   0  0  0  0  0  0  0  0  0  0  0  0
  -47.6664   56.3579   66.0595 C   0  0  0  0  0  0  0  0  0  0  0  0
  -46.2801   56.9560   66.3112 C   0  0  0  0  0  0  0  0  0  0  0  0
  -49.3778   60.3390   60.2363 C   0  0  0  0  0  0  0  0  0  0  0  0
  -49.6916   58.9927   59.5418 C   0  0  0  0  0  0  0  0  0  0  0  0
  -46.5330   58.6263   57.6328 C   0  0  0  0  0  0  0  0  0  0  0  0
  -46.3354   57.2393   57.6527 C   0  0  0  0  0  0  0  0  0  0  0  0
  -47.6504   59.1907   58.2596 C   0  0  0  0  0  0  0  0  0  0  0  0
  -47.2688   56.4381   58.3100 C   0  0  0  0  0  0  0  0  0  0  0  0
  -48.3749   57.0073   58.9388 C   0  0  0  0  0  0  0  0  0  0  0  0
  -48.5714   58.3942   58.9492 C   0  0  0  0  0  0  0  0  0  0  0  0
  -47.1515   55.0890   58.3725 O   0  0  0  0  0  0  0  0  0  0  0  0
  -49.2576   56.1849   59.5762 O   0  0  0  0  0  0  0  0  0  0  0  0
  -46.4240   54.6626   57.9641 H   0  0  0  0  0  0  0  0  0  0  0  0
  -49.1238   55.2576   59.5678 H   0  0  0  0  0  0  0  0  0  0  0  0
 12 13  1  0  0  0
  9 10  2  0  0  0
  9  8  1  0  0  0
  6  7  2  0  0  0
  6  8  1  0  0  0
 10 11  1  0  0  0
  7  5  1  0  0  0
 16 17  2  0  0  0
 16 18  1  0  0  0
 17 19  1  0  0  0
 18 21  2  0  0  0
 13 11  1  0  0  0
  5  4  1  0  0  0
  4  3  1  0  0  0
  3  2  1  0  0  0
  2  1  1  0  0  0
  1 14  1  0  0  0
 14 15  1  0  0  0
 15 21  1  0  0  0
 19 20  2  0  0  0
 19 22  1  0  0  0
 20 21  1  0  0  0
 20 23  1  0  0  0
 22 24  1  0  0  0
 23 25  1  0  0  0
M  END
> <minimizedAffinity>
-8.48376

> <CNNscore>
0.4363624454

> <CNNaffinity>
6.4554595947

> <CNN_VS>
2.8169200420

> <CNNaffinity_variance>
0.2760194242

$$$$



 25 25  0  0  0  0  0  0  0  0999 V2000
  -49.5421   56.9424   59.3976 C   0  0  0  0  0  0  0  0  0  0  0  0
  -48.6831   55.6836   59.5885 C   0  0  0  0  0  0  0  0  0  0  0  0
  -47.5704   55.6379   58.5502 C   0  0  0  0  0  0  0  0  0  0  0  0
  -47.9819   56.4603   57.3286 C   0  0  0  0  0  0  0  0  0  0  0  0
  -46.8928   57.4769   56.9869 C   0  0  0  0  0  0  0  0  0  0  0  0
  -46.3284   58.9802   59.1077 C   0  0  0  0  0  0  0  0  0  0  0  0
  -46.0701   57.7241   58.2527 C   0  0  0  0  0  0  0  0  0  0  0  0
  -47.3119   60.0770   58.6712 C   0  0  0  0  0  0  0  0  0  0  0  0
  -48.2543   60.3384   59.8552 C   0  0  0  0  0  0  0  0  0  0  0  0
  -47.7930   61.1113   61.1140 C   0  0  0  0  0  0  0  0  0  0  0  0
  -46.3708   61.6932   61.2343 C   0  0  0  0  0  0  0  0  0  0  0  0
  -46.8813   60.9617   63.6076 C   0  0  0  0  0  0  0  0  0  0  0  0
  -46.0986   61.9369   62.7250 C   0  0  0  0  0  0  0  0  0  0  0  0
  -50.3704   57.3168   60.6541 C   0  0  0  0  0  0  0  0  0  0  0  0
  -49.4939   57.6233   61.8915 C   0  0  0  0  0  0  0  0  0  0  0  0
  -51.7202   60.2663   63.2380 C   0  0  0  0  0  0  0  0  0  0  0  0
  -51.3029   60.3518   64.5729 C   0  0  0  0  0  0  0  0  0  0  0  0
  -51.1093   59.3607   62.3625 C   0  0  0  0  0  0  0  0  0  0  0  0
  -50.2740   59.5173   65.0088 C   0  0  0  0  0  0  0  0  0  0  0  0
  -49.6753   58.6123   64.1337 C   0  0  0  0  0  0  0  0  0  0  0  0
  -50.0998   58.4977   62.8038 C   0  0  0  0  0  0  0  0  0  0  0  0
  -49.8110   59.5402   66.2827 O   0  0  0  0  0  0  0  0  0  0  0  0
  -48.6777   57.8105   64.6066 O   0  0  0  0  0  0  0  0  0  0  0  0
  -50.1835   60.1324   66.9059 H   0  0  0  0  0  0  0  0  0  0  0  0
  -48.3956   57.8891   65.4966 H   0  0  0  0  0  0  0  0  0  0  0  0
 12 13  1  0  0  0
  9 10  2  0  0  0
  9  8  1  0  0  0
  6  7  2  0  0  0
  6  8  1  0  0  0
 10 11  1  0  0  0
  7  5  1  0  0  0
 16 17  2  0  0  0
 16 18  1  0  0  0
 17 19  1  0  0  0
 18 21  2  0  0  0
 13 11  1  0  0  0
  5  4  1  0  0  0
  4  3  1  0  0  0
  3  2  1  0  0  0
  2  1  1  0  0  0
  1 14  1  0  0  0
 14 15  1  0  0  0
 15 21  1  0  0  0
 19 20  2  0  0  0
 19 22  1  0  0  0
 20 21  1  0  0  0
 20 23  1  0  0  0
 22 24  1  0  0  0
 23 25  1  0  0  0
M  END
> <minimizedAffinity>
-8.75992

> <CNNscore>
0.4104210138

> <CNNaffinity>
6.3502392769

> <CNN_VS>
2.6062717438

> <CNNaffinity_variance>
0.2081965953

$$$$



 25 25  0  0  0  0  0  0  0  0999 V2000
  -51.0056   59.4249   63.1545 C   0  0  0  0  0  0  0  0  0  0  0  0
  -50.3189   58.1993   62.5337 C   0  0  0  0  0  0  0  0  0  0  0  0
  -50.9863   57.8271   61.2169 C   0  0  0  0  0  0  0  0  0  0  0  0
  -49.9137   57.4725   60.1865 C   0  0  0  0  0  0  0  0  0  0  0  0
  -49.7903   58.5886   59.1493 C   0  0  0  0  0  0  0  0  0  0  0  0
  -48.1063   60.6144   59.5187 C   0  0  0  0  0  0  0  0  0  0  0  0
  -49.4058   59.8722   59.8872 C   0  0  0  0  0  0  0  0  0  0  0  0
  -47.1001   60.0456   58.5063 C   0  0  0  0  0  0  0  0  0  0  0  0
  -46.3467   58.9056   59.2071 C   0  0  0  0  0  0  0  0  0  0  0  0
  -45.9742   57.5963   58.4711 C   0  0  0  0  0  0  0  0  0  0  0  0
  -46.3075   57.3780   56.9823 C   0  0  0  0  0  0  0  0  0  0  0  0
  -47.5123   55.5182   58.2143 C   0  0  0  0  0  0  0  0  0  0  0  0
  -46.9949   56.0111   56.8607 C   0  0  0  0  0  0  0  0  0  0  0  0
  -50.1923   60.0650   64.3092 C   0  0  0  0  0  0  0  0  0  0  0  0
  -50.3041   59.2823   65.6390 C   0  0  0  0  0  0  0  0  0  0  0  0
  -47.8701   56.5162   66.0622 C   0  0  0  0  0  0  0  0  0  0  0  0
  -46.8230   57.1467   66.7473 C   0  0  0  0  0  0  0  0  0  0  0  0
  -49.0167   57.2358   65.7055 C   0  0  0  0  0  0  0  0  0  0  0  0
  -46.9458   58.5001   67.0612 C   0  0  0  0  0  0  0  0  0  0  0  0
  -48.0869   59.2126   66.6961 C   0  0  0  0  0  0  0  0  0  0  0  0
  -49.1299   58.6017   65.9883 C   0  0  0  0  0  0  0  0  0  0  0  0
  -45.9798   59.1821   67.7240 O   0  0  0  0  0  0  0  0  0  0  0  0
  -48.1595   60.5367   67.0174 O   0  0  0  0  0  0  0  0  0  0  0  0
  -45.1951   58.7441   67.9893 H   0  0  0  0  0  0  0  0  0  0  0  0
  -47.4605   60.9429   67.4910 H   0  0  0  0  0  0  0  0  0  0  0  0
 12 13  1  0  0  0
  9 10  2  0  0  0
  9  8  1  0  0  0
  6  7  2  0  0  0
  6  8  1  0  0  0
 10 11  1  0  0  0
  7  5  1  0  0  0
 16 17  2  0  0  0
 16 18  1  0  0  0
 17 19  1  0  0  0
 18 21  2  0  0  0
 13 11  1  0  0  0
  5  4  1  0  0  0
  4  3  1  0  0  0
  3  2  1  0  0  0
  2  1  1  0  0  0
  1 14  1  0  0  0
 14 15  1  0  0  0
 15 21  1  0  0  0
 19 20  2  0  0  0
 19 22  1  0  0  0
 20 21  1  0  0  0
 20 23  1  0  0  0
 22 24  1  0  0  0
 23 25  1  0  0  0
M  END
> <minimizedAffinity>
-8.87746

> <CNNscore>
0.4040333629

> <CNNaffinity>
6.3444690704

> <CNN_VS>
2.5633771420

> <CNNaffinity_variance>
0.1382798105

$$$$



 25 25  0  0  0  0  0  0  0  0999 V2000
  -50.5611   58.0959   61.9766 C   0  0  0  0  0  0  0  0  0  0  0  0
  -50.4944   59.5859   62.3436 C   0  0  0  0  0  0  0  0  0  0  0  0
  -51.7794   60.0202   63.0352 C   0  0  0  0  0  0  0  0  0  0  0  0
  -51.4455   60.5944   64.4125 C   0  0  0  0  0  0  0  0  0  0  0  0
  -50.0216   60.2088   64.8128 C   0  0  0  0  0  0  0  0  0  0  0  0
  -49.2999   57.9552   66.0281 C   0  0  0  0  0  0  0  0  0  0  0  0
  -50.1128   59.2646   66.0129 C   0  0  0  0  0  0  0  0  0  0  0  0
  -48.4792   57.4896   64.8155 C   0  0  0  0  0  0  0  0  0  0  0  0
  -47.0630   58.0601   64.9801 C   0  0  0  0  0  0  0  0  0  0  0  0
  -46.2638   58.6260   63.7818 C   0  0  0  0  0  0  0  0  0  0  0  0
  -46.8594   58.6813   62.3614 C   0  0  0  0  0  0  0  0  0  0  0  0
  -47.1219   61.0388   61.4659 C   0  0  0  0  0  0  0  0  0  0  0  0
  -46.1799   59.8426   61.6230 C   0  0  0  0  0  0  0  0  0  0  0  0
  -50.6494   57.8433   60.4491 C   0  0  0  0  0  0  0  0  0  0  0  0
  -49.6822   56.7402   59.9580 C   0  0  0  0  0  0  0  0  0  0  0  0
  -47.4775   59.0780   58.1061 C   0  0  0  0  0  0  0  0  0  0  0  0
  -46.8347   58.2230   57.2011 C   0  0  0  0  0  0  0  0  0  0  0  0
  -48.4198   58.5724   59.0097 C   0  0  0  0  0  0  0  0  0  0  0  0
  -47.1494   56.8645   57.2226 C   0  0  0  0  0  0  0  0  0  0  0  0
  -48.0828   56.3665   58.1302 C   0  0  0  0  0  0  0  0  0  0  0  0
  -48.7139   57.2051   59.0578 C   0  0  0  0  0  0  0  0  0  0  0  0
  -46.5743   55.9727   56.3790 O   0  0  0  0  0  0  0  0  0  0  0  0
  -48.3532   55.0291   58.1198 O   0  0  0  0  0  0  0  0  0  0  0  0
  -45.9412   56.2621   55.7518 H   0  0  0  0  0  0  0  0  0  0  0  0
  -47.9297   54.4703   57.4983 H   0  0  0  0  0  0  0  0  0  0  0  0
 12 13  1  0  0  0
  9 10  2  0  0  0
  9  8  1  0  0  0
  6  7  2  0  0  0
  6  8  1  0  0  0
 10 11  1  0  0  0
  7  5  1  0  0  0
 16 17  2  0  0  0
 16 18  1  0  0  0
 17 19  1  0  0  0
 18 21  2  0  0  0
 13 11  1  0  0  0
  5  4  1  0  0  0
  4  3  1  0  0  0
  3  2  1  0  0  0
  2  1  1  0  0  0
  1 14  1  0  0  0
 14 15  1  0  0  0
 15 21  1  0  0  0
 19 20  2  0  0  0
 19 22  1  0  0  0
 20 21  1  0  0  0
 20 23  1  0  0  0
 22 24  1  0  0  0
 23 25  1  0  0  0
M  END
> <minimizedAffinity>
-8.29444

> <CNNscore>
0.3746223152

> <CNNaffinity>
6.7621893883

> <CNN_VS>
2.5332670212

> <CNNaffinity_variance>
0.0315011367

$$$$



 25 25  0  0  0  0  0  0  0  0999 V2000
  -48.2818   60.0606   61.3198 C   0  0  0  0  0  0  0  0  0  0  0  0
  -47.2228   61.1730   61.3254 C   0  0  0  0  0  0  0  0  0  0  0  0
  -45.8277   60.5784   61.1898 C   0  0  0  0  0  0  0  0  0  0  0  0
  -44.8149   61.4994   61.8709 C   0  0  0  0  0  0  0  0  0  0  0  0
  -45.2858   61.8475   63.2828 C   0  0  0  0  0  0  0  0  0  0  0  0
  -46.2181   60.1000   65.0586 C   0  0  0  0  0  0  0  0  0  0  0  0
  -45.0739   60.6148   64.1636 C   0  0  0  0  0  0  0  0  0  0  0  0
  -47.5485   60.8558   65.1985 C   0  0  0  0  0  0  0  0  0  0  0  0
  -48.3229   60.2014   66.3519 C   0  0  0  0  0  0  0  0  0  0  0  0
  -49.6287   59.4058   66.1141 C   0  0  0  0  0  0  0  0  0  0  0  0
  -50.2059   59.1954   64.7006 C   0  0  0  0  0  0  0  0  0  0  0  0
  -51.8840   60.1847   63.0776 C   0  0  0  0  0  0  0  0  0  0  0  0
  -51.1678   60.3579   64.4192 C   0  0  0  0  0  0  0  0  0  0  0  0
  -49.3797   60.2636   60.2436 C   0  0  0  0  0  0  0  0  0  0  0  0
  -49.7129   58.9702   59.4629 C   0  0  0  0  0  0  0  0  0  0  0  0
  -46.5265   58.4632   57.6340 C   0  0  0  0  0  0  0  0  0  0  0  0
  -46.3301   57.0816   57.7608 C   0  0  0  0  0  0  0  0  0  0  0  0
  -47.6527   59.0725   58.2000 C   0  0  0  0  0  0  0  0  0  0  0  0
  -47.2737   56.3316   58.4624 C   0  0  0  0  0  0  0  0  0  0  0  0
  -48.3887   56.9458   59.0302 C   0  0  0  0  0  0  0  0  0  0  0  0
  -48.5844   58.3295   58.9336 C   0  0  0  0  0  0  0  0  0  0  0  0
  -47.1582   54.9910   58.6277 O   0  0  0  0  0  0  0  0  0  0  0  0
  -49.2813   56.1731   59.7143 O   0  0  0  0  0  0  0  0  0  0  0  0
  -46.4250   54.5355   58.2633 H   0  0  0  0  0  0  0  0  0  0  0  0
  -49.1480   55.2478   59.7774 H   0  0  0  0  0  0  0  0  0  0  0  0
 12 13  1  0  0  0
  9 10  2  0  0  0
  9  8  1  0  0  0
  6  7  2  0  0  0
  6  8  1  0  0  0
 10 11  1  0  0  0
  7  5  1  0  0  0
 16 17  2  0  0  0
 16 18  1  0  0  0
 17 19  1  0  0  0
 18 21  2  0  0  0
 13 11  1  0  0  0
  5  4  1  0  0  0
  4  3  1  0  0  0
  3  2  1  0  0  0
  2  1  1  0  0  0
  1 14  1  0  0  0
 14 15  1  0  0  0
 15 21  1  0  0  0
 19 20  2  0  0  0
 19 22  1  0  0  0
 20 21  1  0  0  0
 20 23  1  0  0  0
 22 24  1  0  0  0
 23 25  1  0  0  0
M  END
> <minimizedAffinity>
-8.39793

> <CNNscore>
0.3724443018

> <CNNaffinity>
6.5190267563

> <CNN_VS>
2.4279744625

> <CNNaffinity_variance>
0.1006104797

$$$$
