


 25 25  0  0  0  0  0  0  0  0999 V2000
  -34.8660   56.9896   62.1302 C   0  0  0  0  0  0  0  0  0  0  0  0
  -36.0141   57.7323   61.4306 C   0  0  0  0  0  0  0  0  0  0  0  0
  -37.3310   57.0001   61.6491 C   0  0  0  0  0  0  0  0  0  0  0  0
  -38.4760   58.0129   61.6796 C   0  0  0  0  0  0  0  0  0  0  0  0
  -39.7618   57.3701   61.1599 C   0  0  0  0  0  0  0  0  0  0  0  0
  -41.8212   56.5380   62.6237 C   0  0  0  0  0  0  0  0  0  0  0  0
  -40.3220   56.4804   62.2712 C   0  0  0  0  0  0  0  0  0  0  0  0
  -42.7735   57.5561   61.9776 C   0  0  0  0  0  0  0  0  0  0  0  0
  -44.0006   57.6741   62.8933 C   0  0  0  0  0  0  0  0  0  0  0  0
  -45.3232   58.3168   62.4114 C   0  0  0  0  0  0  0  0  0  0  0  0
  -45.4942   58.8424   60.9726 C   0  0  0  0  0  0  0  0  0  0  0  0
  -45.8675   57.6933   58.7435 C   0  0  0  0  0  0  0  0  0  0  0  0
  -46.3229   57.8067   60.2004 C   0  0  0  0  0  0  0  0  0  0  0  0
  -33.4618   57.4311   61.6423 C   0  0  0  0  0  0  0  0  0  0  0  0
  -32.6453   58.1713   62.7280 C   0  0  0  0  0  0  0  0  0  0  0  0
  -30.1355   60.6086   61.4969 C   0  0  0  0  0  0  0  0  0  0  0  0
  -30.8729   61.7996   61.4624 C   0  0  0  0  0  0  0  0  0  0  0  0
  -30.7355   59.4171   61.9214 C   0  0  0  0  0  0  0  0  0  0  0  0
  -32.2111   61.7715   61.8544 C   0  0  0  0  0  0  0  0  0  0  0  0
  -32.8045   60.5801   62.2685 C   0  0  0  0  0  0  0  0  0  0  0  0
  -32.0868   59.3773   62.2833 C   0  0  0  0  0  0  0  0  0  0  0  0
  -32.9916   62.8799   61.8523 O   0  0  0  0  0  0  0  0  0  0  0  0
  -34.1185   60.5991   62.6355 O   0  0  0  0  0  0  0  0  0  0  0  0
  -32.6354   63.7032   61.5816 H   0  0  0  0  0  0  0  0  0  0  0  0
  -34.5964   61.4050   62.6247 H   0  0  0  0  0  0  0  0  0  0  0  0
 12 13  1  0  0  0
  9 10  2  0  0  0
  9  8  1  0  0  0
  6  7  2  0  0  0
  6  8  1  0  0  0
 10 11  1  0  0  0
  7  5  1  0  0  0
 16 17  2  0  0  0
 16 18  1  0  0  0
 17 19  1  0  0  0
 18 21  2  0  0  0
 13 11  1  0  0  0
  5  4  1  0  0  0
  4  3  1  0  0  0
  3  2  1  0  0  0
  2  1  1  0  0  0
  1 14  1  0  0  0
 14 15  1  0  0  0
 15 21  1  0  0  0
 19 20  2  0  0  0
 19 22  1  0  0  0
 20 21  1  0  0  0
 20 23  1  0  0  0
 22 24  1  0  0  0
 23 25  1  0  0  0
M  END
> <minimizedAffinity>
-7.87522

> <CNNscore>
0.7077257633

> <CNNaffinity>
6.0287199020

> <CNN_VS>
4.2666802406

> <CNNaffinity_variance>
0.0245502256

$$$$



 25 25  0  0  0  0  0  0  0  0999 V2000
  -46.7284   58.5248   66.7834 C   0  0  0  0  0  0  0  0  0  0  0  0
  -47.3821   59.3257   65.6475 C   0  0  0  0  0  0  0  0  0  0  0  0
  -48.4957   60.2089   66.1935 C   0  0  0  0  0  0  0  0  0  0  0  0
  -49.7994   59.4112   66.2404 C   0  0  0  0  0  0  0  0  0  0  0  0
  -49.9886   58.6341   64.9378 C   0  0  0  0  0  0  0  0  0  0  0  0
  -50.8213   59.1440   62.4634 C   0  0  0  0  0  0  0  0  0  0  0  0
  -50.7022   59.5529   63.9446 C   0  0  0  0  0  0  0  0  0  0  0  0
  -50.1366   57.8866   61.9059 C   0  0  0  0  0  0  0  0  0  0  0  0
  -50.8023   57.5667   60.5595 C   0  0  0  0  0  0  0  0  0  0  0  0
  -50.2882   58.1663   59.2288 C   0  0  0  0  0  0  0  0  0  0  0  0
  -49.0559   59.0906   59.1766 C   0  0  0  0  0  0  0  0  0  0  0  0
  -46.9832   59.0835   57.7164 C   0  0  0  0  0  0  0  0  0  0  0  0
  -47.8806   58.2600   58.6433 C   0  0  0  0  0  0  0  0  0  0  0  0
  -45.1786   58.5650   66.7499 C   0  0  0  0  0  0  0  0  0  0  0  0
  -44.5391   57.1782   66.5026 C   0  0  0  0  0  0  0  0  0  0  0  0
  -41.3792   58.4670   65.0503 C   0  0  0  0  0  0  0  0  0  0  0  0
  -41.0234   57.4432   64.1623 C   0  0  0  0  0  0  0  0  0  0  0  0
  -42.5474   58.3658   65.8151 C   0  0  0  0  0  0  0  0  0  0  0  0
  -41.8518   56.3258   64.0603 C   0  0  0  0  0  0  0  0  0  0  0  0
  -43.0094   56.2279   64.8306 C   0  0  0  0  0  0  0  0  0  0  0  0
  -43.3638   57.2316   65.7411 C   0  0  0  0  0  0  0  0  0  0  0  0
  -41.5798   55.2944   63.2237 O   0  0  0  0  0  0  0  0  0  0  0  0
  -43.7852   55.1127   64.7030 O   0  0  0  0  0  0  0  0  0  0  0  0
  -40.8123   55.3167   62.6866 H   0  0  0  0  0  0  0  0  0  0  0  0
  -43.5460   54.4428   64.0932 H   0  0  0  0  0  0  0  0  0  0  0  0
 12 13  1  0  0  0
  9 10  2  0  0  0
  9  8  1  0  0  0
  6  7  2  0  0  0
  6  8  1  0  0  0
 10 11  1  0  0  0
  7  5  1  0  0  0
 16 17  2  0  0  0
 16 18  1  0  0  0
 17 19  1  0  0  0
 18 21  2  0  0  0
 13 11  1  0  0  0
  5  4  1  0  0  0
  4  3  1  0  0  0
  3  2  1  0  0  0
  2  1  1  0  0  0
  1 14  1  0  0  0
 14 15  1  0  0  0
 15 21  1  0  0  0
 19 20  2  0  0  0
 19 22  1  0  0  0
 20 21  1  0  0  0
 20 23  1  0  0  0
 22 24  1  0  0  0
 23 25  1  0  0  0
M  END
> <minimizedAffinity>
-7.65099

> <CNNscore>
0.5858129263

> <CNNaffinity>
6.7468733788

> <CNN_VS>
3.9524056911

> <CNNaffinity_variance>
0.6367584467

$$$$



 25 25  0  0  0  0  0  0  0  0999 V2000
  -50.7063   59.3669   66.0028 C   0  0  0  0  0  0  0  0  0  0  0  0
  -51.2067   60.2805   64.8741 C   0  0  0  0  0  0  0  0  0  0  0  0
  -50.3285   60.1285   63.6396 C   0  0  0  0  0  0  0  0  0  0  0  0
  -51.0835   59.3325   62.5745 C   0  0  0  0  0  0  0  0  0  0  0  0
  -50.2876   58.0870   62.1850 C   0  0  0  0  0  0  0  0  0  0  0  0
  -50.0772   56.9481   59.7902 C   0  0  0  0  0  0  0  0  0  0  0  0
  -50.9475   57.4789   60.9461 C   0  0  0  0  0  0  0  0  0  0  0  0
  -48.5499   57.1155   59.7746 C   0  0  0  0  0  0  0  0  0  0  0  0
  -48.1596   57.5858   58.3658 C   0  0  0  0  0  0  0  0  0  0  0  0
  -47.2928   58.8467   58.1342 C   0  0  0  0  0  0  0  0  0  0  0  0
  -46.7427   59.6812   59.3075 C   0  0  0  0  0  0  0  0  0  0  0  0
  -48.7110   60.9128   60.3260 C   0  0  0  0  0  0  0  0  0  0  0  0
  -47.5357   60.9946   59.3489 C   0  0  0  0  0  0  0  0  0  0  0  0
  -49.1679   59.1713   65.9979 C   0  0  0  0  0  0  0  0  0  0  0  0
  -48.7417   57.7067   65.7393 C   0  0  0  0  0  0  0  0  0  0  0  0
  -45.4007   56.8745   67.1179 C   0  0  0  0  0  0  0  0  0  0  0  0
  -44.5551   57.1687   66.0401 C   0  0  0  0  0  0  0  0  0  0  0  0
  -46.7834   57.0612   67.0037 C   0  0  0  0  0  0  0  0  0  0  0  0
  -45.1182   57.6453   64.8564 C   0  0  0  0  0  0  0  0  0  0  0  0
  -46.4966   57.8214   64.7468 C   0  0  0  0  0  0  0  0  0  0  0  0
  -47.3562   57.5069   65.8071 C   0  0  0  0  0  0  0  0  0  0  0  0
  -44.3695   57.9554   63.7697 O   0  0  0  0  0  0  0  0  0  0  0  0
  -47.0033   58.2826   63.5669 O   0  0  0  0  0  0  0  0  0  0  0  0
  -43.4385   57.8529   63.7974 H   0  0  0  0  0  0  0  0  0  0  0  0
  -46.4261   58.4922   62.8592 H   0  0  0  0  0  0  0  0  0  0  0  0
 12 13  1  0  0  0
  9 10  2  0  0  0
  9  8  1  0  0  0
  6  7  2  0  0  0
  6  8  1  0  0  0
 10 11  1  0  0  0
  7  5  1  0  0  0
 16 17  2  0  0  0
 16 18  1  0  0  0
 17 19  1  0  0  0
 18 21  2  0  0  0
 13 11  1  0  0  0
  5  4  1  0  0  0
  4  3  1  0  0  0
  3  2  1  0  0  0
  2  1  1  0  0  0
  1 14  1  0  0  0
 14 15  1  0  0  0
 15 21  1  0  0  0
 19 20  2  0  0  0
 19 22  1  0  0  0
 20 21  1  0  0  0
 20 23  1  0  0  0
 22 24  1  0  0  0
 23 25  1  0  0  0
M  END
> <minimizedAffinity>
-7.75480

> <CNNscore>
0.5416363478

> <CNNaffinity>
6.5842704773

> <CNN_VS>
3.5662801266

> <CNNaffinity_variance>
0.1588576138

$$$$



 25 25  0  0  0  0  0  0  0  0999 V2000
  -34.9753   57.0156   62.7644 C   0  0  0  0  0  0  0  0  0  0  0  0
  -35.4671   57.6980   61.4793 C   0  0  0  0  0  0  0  0  0  0  0  0
  -36.9364   57.3798   61.2383 C   0  0  0  0  0  0  0  0  0  0  0  0
  -37.6037   58.5631   60.5366 C   0  0  0  0  0  0  0  0  0  0  0  0
  -39.1205   58.4928   60.7125 C   0  0  0  0  0  0  0  0  0  0  0  0
  -40.8330   57.1055   62.2021 C   0  0  0  0  0  0  0  0  0  0  0  0
  -39.4349   57.2688   61.5745 C   0  0  0  0  0  0  0  0  0  0  0  0
  -41.9078   58.1985   62.0973 C   0  0  0  0  0  0  0  0  0  0  0  0
  -41.7411   59.1171   63.3165 C   0  0  0  0  0  0  0  0  0  0  0  0
  -41.6614   60.6563   63.1774 C   0  0  0  0  0  0  0  0  0  0  0  0
  -41.7810   61.3557   61.8092 C   0  0  0  0  0  0  0  0  0  0  0  0
  -44.2597   61.8848   61.8738 C   0  0  0  0  0  0  0  0  0  0  0  0
  -42.8417   62.4564   61.9468 C   0  0  0  0  0  0  0  0  0  0  0  0
  -34.5855   58.0182   63.8814 C   0  0  0  0  0  0  0  0  0  0  0  0
  -35.1464   59.4405   63.6451 C   0  0  0  0  0  0  0  0  0  0  0  0
  -38.5109   59.4987   65.2047 C   0  0  0  0  0  0  0  0  0  0  0  0
  -38.3657   60.4916   66.1826 C   0  0  0  0  0  0  0  0  0  0  0  0
  -37.4372   59.1648   64.3706 C   0  0  0  0  0  0  0  0  0  0  0  0
  -37.1340   61.1337   66.3088 C   0  0  0  0  0  0  0  0  0  0  0  0
  -36.0668   60.7909   65.4803 C   0  0  0  0  0  0  0  0  0  0  0  0
  -36.1898   59.7825   64.5160 C   0  0  0  0  0  0  0  0  0  0  0  0
  -36.9129   62.1059   67.2273 O   0  0  0  0  0  0  0  0  0  0  0  0
  -34.8783   61.4405   65.6453 O   0  0  0  0  0  0  0  0  0  0  0  0
  -37.6014   62.3692   67.8058 H   0  0  0  0  0  0  0  0  0  0  0  0
  -34.7986   62.1147   66.2911 H   0  0  0  0  0  0  0  0  0  0  0  0
 12 13  1  0  0  0
  9 10  2  0  0  0
  9  8  1  0  0  0
  6  7  2  0  0  0
  6  8  1  0  0  0
 10 11  1  0  0  0
  7  5  1  0  0  0
 16 17  2  0  0  0
 16 18  1  0  0  0
 17 19  1  0  0  0
 18 21  2  0  0  0
 13 11  1  0  0  0
  5  4  1  0  0  0
  4  3  1  0  0  0
  3  2  1  0  0  0
  2  1  1  0  0  0
  1 14  1  0  0  0
 14 15  1  0  0  0
 15 21  1  0  0  0
 19 20  2  0  0  0
 19 22  1  0  0  0
 20 21  1  0  0  0
 20 23  1  0  0  0
 22 24  1  0  0  0
 23 25  1  0  0  0
M  END
> <minimizedAffinity>
-6.98962

> <CNNscore>
0.5363605618

> <CNNaffinity>
6.1207427979

> <CNN_VS>
3.2829251289

> <CNNaffinity_variance>
0.0448184796

$$$$



 25 25  0  0  0  0  0  0  0  0999 V2000
  -34.2706   56.7371   62.1820 C   0  0  0  0  0  0  0  0  0  0  0  0
  -35.5817   57.5370   62.1785 C   0  0  0  0  0  0  0  0  0  0  0  0
  -36.4518   57.1350   63.3615 C   0  0  0  0  0  0  0  0  0  0  0  0
  -37.0388   58.3895   64.0093 C   0  0  0  0  0  0  0  0  0  0  0  0
  -38.0653   58.0016   65.0735 C   0  0  0  0  0  0  0  0  0  0  0  0
  -40.6211   58.4293   64.4721 C   0  0  0  0  0  0  0  0  0  0  0  0
  -39.2533   58.9571   64.9474 C   0  0  0  0  0  0  0  0  0  0  0  0
  -40.8168   56.9819   63.9951 C   0  0  0  0  0  0  0  0  0  0  0  0
  -41.5351   57.0443   62.6392 C   0  0  0  0  0  0  0  0  0  0  0  0
  -40.7615   57.2138   61.3097 C   0  0  0  0  0  0  0  0  0  0  0  0
  -39.2228   57.2935   61.2694 C   0  0  0  0  0  0  0  0  0  0  0  0
  -39.3654   59.8249   61.2806 C   0  0  0  0  0  0  0  0  0  0  0  0
  -38.8487   58.5901   60.5383 C   0  0  0  0  0  0  0  0  0  0  0  0
  -33.0118   57.6225   62.3730 C   0  0  0  0  0  0  0  0  0  0  0  0
  -33.3364   59.1332   62.4488 C   0  0  0  0  0  0  0  0  0  0  0  0
  -29.8264   60.2199   61.9449 C   0  0  0  0  0  0  0  0  0  0  0  0
  -29.9771   61.5849   61.6669 C   0  0  0  0  0  0  0  0  0  0  0  0
  -30.9476   59.4229   62.2049 C   0  0  0  0  0  0  0  0  0  0  0  0
  -31.2614   62.1284   61.6512 C   0  0  0  0  0  0  0  0  0  0  0  0
  -32.3741   61.3275   61.9032 C   0  0  0  0  0  0  0  0  0  0  0  0
  -32.2404   59.9564   62.1569 C   0  0  0  0  0  0  0  0  0  0  0  0
  -31.4919   63.4392   61.3936 O   0  0  0  0  0  0  0  0  0  0  0  0
  -33.6116   61.9012   61.8695 O   0  0  0  0  0  0  0  0  0  0  0  0
  -30.7742   64.0155   61.2185 H   0  0  0  0  0  0  0  0  0  0  0  0
  -33.6983   62.8185   61.6996 H   0  0  0  0  0  0  0  0  0  0  0  0
 12 13  1  0  0  0
  9 10  2  0  0  0
  9  8  1  0  0  0
  6  7  2  0  0  0
  6  8  1  0  0  0
 10 11  1  0  0  0
  7  5  1  0  0  0
 16 17  2  0  0  0
 16 18  1  0  0  0
 17 19  1  0  0  0
 18 21  2  0  0  0
 13 11  1  0  0  0
  5  4  1  0  0  0
  4  3  1  0  0  0
  3  2  1  0  0  0
  2  1  1  0  0  0
  1 14  1  0  0  0
 14 15  1  0  0  0
 15 21  1  0  0  0
 19 20  2  0  0  0
 19 22  1  0  0  0
 20 21  1  0  0  0
 20 23  1  0  0  0
 22 24  1  0  0  0
 23 25  1  0  0  0
M  END
> <minimizedAffinity>
-7.24450

> <CNNscore>
0.5306394100

> <CNNaffinity>
6.2040395737

> <CNN_VS>
3.2921078205

> <CNNaffinity_variance>
0.0672559366

$$$$



 25 25  0  0  0  0  0  0  0  0999 V2000
  -34.8518   57.1034   62.7485 C   0  0  0  0  0  0  0  0  0  0  0  0
  -35.5590   57.7311   61.5382 C   0  0  0  0  0  0  0  0  0  0  0  0
  -36.9918   57.2258   61.4398 C   0  0  0  0  0  0  0  0  0  0  0  0
  -37.8466   58.2621   60.7093 C   0  0  0  0  0  0  0  0  0  0  0  0
  -39.3289   58.0112   60.9854 C   0  0  0  0  0  0  0  0  0  0  0  0
  -40.6503   56.5093   62.7388 C   0  0  0  0  0  0  0  0  0  0  0  0
  -39.4480   57.4065   62.3854 C   0  0  0  0  0  0  0  0  0  0  0  0
  -41.8186   56.2890   61.7655 C   0  0  0  0  0  0  0  0  0  0  0  0
  -42.7090   57.5383   61.8356 C   0  0  0  0  0  0  0  0  0  0  0  0
  -43.6274   57.8223   63.0482 C   0  0  0  0  0  0  0  0  0  0  0  0
  -43.6727   56.8845   64.2705 C   0  0  0  0  0  0  0  0  0  0  0  0
  -42.0679   58.1800   65.7451 C   0  0  0  0  0  0  0  0  0  0  0  0
  -43.5220   57.7563   65.5246 C   0  0  0  0  0  0  0  0  0  0  0  0
  -34.4642   58.1373   63.8373 C   0  0  0  0  0  0  0  0  0  0  0  0
  -35.0867   59.5336   63.5996 C   0  0  0  0  0  0  0  0  0  0  0  0
  -38.3567   59.5581   65.3493 C   0  0  0  0  0  0  0  0  0  0  0  0
  -38.1688   60.5588   66.3119 C   0  0  0  0  0  0  0  0  0  0  0  0
  -37.3282   59.2329   64.4569 C   0  0  0  0  0  0  0  0  0  0  0  0
  -36.9406   61.2176   66.3637 C   0  0  0  0  0  0  0  0  0  0  0  0
  -35.9181   60.8834   65.4772 C   0  0  0  0  0  0  0  0  0  0  0  0
  -36.0829   59.8674   64.5270 C   0  0  0  0  0  0  0  0  0  0  0  0
  -36.6801   62.1982   67.2627 O   0  0  0  0  0  0  0  0  0  0  0  0
  -34.7308   61.5493   65.5702 O   0  0  0  0  0  0  0  0  0  0  0  0
  -37.3377   62.4562   67.8783 H   0  0  0  0  0  0  0  0  0  0  0  0
  -34.6231   62.2284   66.2066 H   0  0  0  0  0  0  0  0  0  0  0  0
 12 13  1  0  0  0
  9 10  2  0  0  0
  9  8  1  0  0  0
  6  7  2  0  0  0
  6  8  1  0  0  0
 10 11  1  0  0  0
  7  5  1  0  0  0
 16 17  2  0  0  0
 16 18  1  0  0  0
 17 19  1  0  0  0
 18 21  2  0  0  0
 13 11  1  0  0  0
  5  4  1  0  0  0
  4  3  1  0  0  0
  3  2  1  0  0  0
  2  1  1  0  0  0
  1 14  1  0  0  0
 14 15  1  0  0  0
 15 21  1  0  0  0
 19 20  2  0  0  0
 19 22  1  0  0  0
 20 21  1  0  0  0
 20 23  1  0  0  0
 22 24  1  0  0  0
 23 25  1  0  0  0
M  END
> <minimizedAffinity>
-6.95518

> <CNNscore>
0.4443236589

> <CNNaffinity>
6.2632708549

> <CNN_VS>
2.7829194069

> <CNNaffinity_variance>
0.0343562327

$$$$



 25 25  0  0  0  0  0  0  0  0999 V2000
  -51.1781   60.1868   64.8571 C   0  0  0  0  0  0  0  0  0  0  0  0
  -51.2304   60.1978   63.3221 C   0  0  0  0  0  0  0  0  0  0  0  0
  -50.7041   58.8828   62.7637 C   0  0  0  0  0  0  0  0  0  0  0  0
  -49.3450   59.1190   62.1043 C   0  0  0  0  0  0  0  0  0  0  0  0
  -49.5184   59.9135   60.8100 C   0  0  0  0  0  0  0  0  0  0  0  0
  -47.3811   60.9668   59.6274 C   0  0  0  0  0  0  0  0  0  0  0  0
  -48.4213   60.9785   60.7646 C   0  0  0  0  0  0  0  0  0  0  0  0
  -47.3242   59.8399   58.5845 C   0  0  0  0  0  0  0  0  0  0  0  0
  -46.4805   58.7067   59.1865 C   0  0  0  0  0  0  0  0  0  0  0  0
  -45.9288   57.5482   58.3216 C   0  0  0  0  0  0  0  0  0  0  0  0
  -46.1656   57.4862   56.7998 C   0  0  0  0  0  0  0  0  0  0  0  0
  -47.4673   55.4181   57.4759 C   0  0  0  0  0  0  0  0  0  0  0  0
  -47.4295   56.6477   56.5652 C   0  0  0  0  0  0  0  0  0  0  0  0
  -50.0553   59.2815   65.4266 C   0  0  0  0  0  0  0  0  0  0  0  0
  -49.0773   60.0374   66.3569 C   0  0  0  0  0  0  0  0  0  0  0  0
  -46.3179   60.9405   64.0493 C   0  0  0  0  0  0  0  0  0  0  0  0
  -45.2090   60.3502   64.6700 C   0  0  0  0  0  0  0  0  0  0  0  0
  -47.5918   60.8251   64.6183 C   0  0  0  0  0  0  0  0  0  0  0  0
  -45.4004   59.6523   65.8623 C   0  0  0  0  0  0  0  0  0  0  0  0
  -46.6702   59.5479   66.4275 C   0  0  0  0  0  0  0  0  0  0  0  0
  -47.7833   60.1548   65.8318 C   0  0  0  0  0  0  0  0  0  0  0  0
  -44.3809   59.0510   66.5232 O   0  0  0  0  0  0  0  0  0  0  0  0
  -46.8083   58.8621   67.5990 O   0  0  0  0  0  0  0  0  0  0  0  0
  -43.5099   59.0950   66.1805 H   0  0  0  0  0  0  0  0  0  0  0  0
  -46.0621   58.4570   67.9954 H   0  0  0  0  0  0  0  0  0  0  0  0
 12 13  1  0  0  0
  9 10  2  0  0  0
  9  8  1  0  0  0
  6  7  2  0  0  0
  6  8  1  0  0  0
 10 11  1  0  0  0
  7  5  1  0  0  0
 16 17  2  0  0  0
 16 18  1  0  0  0
 17 19  1  0  0  0
 18 21  2  0  0  0
 13 11  1  0  0  0
  5  4  1  0  0  0
  4  3  1  0  0  0
  3  2  1  0  0  0
  2  1  1  0  0  0
  1 14  1  0  0  0
 14 15  1  0  0  0
 15 21  1  0  0  0
 19 20  2  0  0  0
 19 22  1  0  0  0
 20 21  1  0  0  0
 20 23  1  0  0  0
 22 24  1  0  0  0
 23 25  1  0  0  0
M  END
> <minimizedAffinity>
-8.59776

> <CNNscore>
0.3981075287

> <CNNaffinity>
6.1781392097

> <CNN_VS>
2.4595637321

> <CNNaffinity_variance>
0.0935832188

$$$$



 25 25  0  0  0  0  0  0  0  0999 V2000
  -44.6746   59.7475   65.2955 C   0  0  0  0  0  0  0  0  0  0  0  0
  -45.1181   58.7991   66.4194 C   0  0  0  0  0  0  0  0  0  0  0  0
  -46.1075   57.7715   65.8871 C   0  0  0  0  0  0  0  0  0  0  0  0
  -47.4328   58.4625   65.5644 C   0  0  0  0  0  0  0  0  0  0  0  0
  -47.8953   58.0841   64.1575 C   0  0  0  0  0  0  0  0  0  0  0  0
  -49.6583   59.0059   62.3916 C   0  0  0  0  0  0  0  0  0  0  0  0
  -48.7654   59.2256   63.6285 C   0  0  0  0  0  0  0  0  0  0  0  0
  -49.6213   57.7024   61.5791 C   0  0  0  0  0  0  0  0  0  0  0  0
  -50.6420   57.8482   60.4410 C   0  0  0  0  0  0  0  0  0  0  0  0
  -50.2167   57.8369   58.9531 C   0  0  0  0  0  0  0  0  0  0  0  0
  -48.7476   57.6426   58.5295 C   0  0  0  0  0  0  0  0  0  0  0  0
  -47.0288   55.7802   58.6044 C   0  0  0  0  0  0  0  0  0  0  0  0
  -48.5035   56.1333   58.3960 C   0  0  0  0  0  0  0  0  0  0  0  0
  -43.4213   59.2488   64.5304 C   0  0  0  0  0  0  0  0  0  0  0  0
  -43.2408   59.9263   63.1513 C   0  0  0  0  0  0  0  0  0  0  0  0
  -45.8196   58.3689   60.9881 C   0  0  0  0  0  0  0  0  0  0  0  0
  -46.5492   59.4822   60.5503 C   0  0  0  0  0  0  0  0  0  0  0  0
  -44.7254   58.5328   61.8459 C   0  0  0  0  0  0  0  0  0  0  0  0
  -46.1660   60.7497   60.9883 C   0  0  0  0  0  0  0  0  0  0  0  0
  -45.0803   60.9051   61.8486 C   0  0  0  0  0  0  0  0  0  0  0  0
  -44.3581   59.7992   62.3148 C   0  0  0  0  0  0  0  0  0  0  0  0
  -46.8173   61.8764   60.6090 O   0  0  0  0  0  0  0  0  0  0  0  0
  -44.7468   62.1635   62.2570 O   0  0  0  0  0  0  0  0  0  0  0  0
  -47.5531   61.8204   60.0315 H   0  0  0  0  0  0  0  0  0  0  0  0
  -45.2316   62.9017   61.9437 H   0  0  0  0  0  0  0  0  0  0  0  0
 12 13  1  0  0  0
  9 10  2  0  0  0
  9  8  1  0  0  0
  6  7  2  0  0  0
  6  8  1  0  0  0
 10 11  1  0  0  0
  7  5  1  0  0  0
 16 17  2  0  0  0
 16 18  1  0  0  0
 17 19  1  0  0  0
 18 21  2  0  0  0
 13 11  1  0  0  0
  5  4  1  0  0  0
  4  3  1  0  0  0
  3  2  1  0  0  0
  2  1  1  0  0  0
  1 14  1  0  0  0
 14 15  1  0  0  0
 15 21  1  0  0  0
 19 20  2  0  0  0
 19 22  1  0  0  0
 20 21  1  0  0  0
 20 23  1  0  0  0
 22 24  1  0  0  0
 23 25  1  0  0  0
M  END
> <minimizedAffinity>
-6.47161

> <CNNscore>
0.3923288286

> <CNNaffinity>
6.5678291321

> <CNN_VS>
2.5767486095

> <CNNaffinity_variance>
0.2741912007

$$$$



 25 25  0  0  0  0  0  0  0  0999 V2000
  -48.1925   60.4148   60.1542 C   0  0  0  0  0  0  0  0  0  0  0  0
  -48.3192   59.6727   58.8154 C   0  0  0  0  0  0  0  0  0  0  0  0
  -46.9908   59.6894   58.0716 C   0  0  0  0  0  0  0  0  0  0  0  0
  -46.7114   58.2989   57.5002 C   0  0  0  0  0  0  0  0  0  0  0  0
  -46.2500   57.3559   58.6111 C   0  0  0  0  0  0  0  0  0  0  0  0
  -48.2391   55.7338   59.3100 C   0  0  0  0  0  0  0  0  0  0  0  0
  -47.0003   56.0334   58.4434 C   0  0  0  0  0  0  0  0  0  0  0  0
  -48.6910   56.6712   60.4404 C   0  0  0  0  0  0  0  0  0  0  0  0
  -50.2041   56.8786   60.2802 C   0  0  0  0  0  0  0  0  0  0  0  0
  -51.0152   57.7726   61.2485 C   0  0  0  0  0  0  0  0  0  0  0  0
  -50.3425   58.5340   62.4074 C   0  0  0  0  0  0  0  0  0  0  0  0
  -51.5323   60.2527   63.8424 C   0  0  0  0  0  0  0  0  0  0  0  0
  -50.9629   59.9370   62.4571 C   0  0  0  0  0  0  0  0  0  0  0  0
  -46.7240   60.6017   60.6159 C   0  0  0  0  0  0  0  0  0  0  0  0
  -46.5997   61.3686   61.9538 C   0  0  0  0  0  0  0  0  0  0  0  0
  -43.1022   62.5872   62.1476 C   0  0  0  0  0  0  0  0  0  0  0  0
  -42.5704   61.7957   63.1743 C   0  0  0  0  0  0  0  0  0  0  0  0
  -44.4363   62.4313   61.7530 C   0  0  0  0  0  0  0  0  0  0  0  0
  -43.3956   60.8572   63.7936 C   0  0  0  0  0  0  0  0  0  0  0  0
  -44.7252   60.7127   63.4011 C   0  0  0  0  0  0  0  0  0  0  0  0
  -45.2773   61.5148   62.3943 C   0  0  0  0  0  0  0  0  0  0  0  0
  -42.9573   60.0519   64.7921 O   0  0  0  0  0  0  0  0  0  0  0  0
  -45.4971   59.7870   64.0408 O   0  0  0  0  0  0  0  0  0  0  0  0
  -42.0707   60.1137   65.0889 H   0  0  0  0  0  0  0  0  0  0  0  0
  -45.1254   59.2517   64.7140 H   0  0  0  0  0  0  0  0  0  0  0  0
 12 13  1  0  0  0
  9 10  2  0  0  0
  9  8  1  0  0  0
  6  7  2  0  0  0
  6  8  1  0  0  0
 10 11  1  0  0  0
  7  5  1  0  0  0
 16 17  2  0  0  0
 16 18  1  0  0  0
 17 19  1  0  0  0
 18 21  2  0  0  0
 13 11  1  0  0  0
  5  4  1  0  0  0
  4  3  1  0  0  0
  3  2  1  0  0  0
  2  1  1  0  0  0
  1 14  1  0  0  0
 14 15  1  0  0  0
 15 21  1  0  0  0
 19 20  2  0  0  0
 19 22  1  0  0  0
 20 21  1  0  0  0
 20 23  1  0  0  0
 22 24  1  0  0  0
 23 25  1  0  0  0
M  END
> <minimizedAffinity>
-8.12404

> <CNNscore>
0.3849563897

> <CNNaffinity>
6.1868963242

> <CNN_VS>
2.3816852570

> <CNNaffinity_variance>
0.0468526706

$$$$
