


 37 36  0  0  0  0  0  0  0  0999 V2000
  -42.6638   60.9662   63.9994 O   0  0  0  0  0  0  0  0  0  0  0  0
  -41.7456   60.3173   64.3979 C   0  0  0  0  0  0  0  0  0  0  0  0
  -41.8798   59.0563   65.1871 C   0  0  0  0  0  0  0  0  0  0  0  0
  -43.2436   58.9069   65.8346 C   0  0  0  0  0  0  0  0  0  0  0  0
  -44.2107   58.1030   64.9926 C   0  0  0  0  0  0  0  0  0  0  0  0
  -45.1641   57.2405   65.7857 C   0  0  0  0  0  0  0  0  0  0  0  0
  -46.5931   57.7190   65.7507 C   0  0  0  0  0  0  0  0  0  0  0  0
  -46.7849   58.8864   64.8202 C   0  0  0  0  0  0  0  0  0  0  0  0
  -47.8911   59.8297   65.1900 C   0  0  0  0  0  0  0  0  0  0  0  0
  -49.1618   59.1512   65.4836 C   0  0  0  0  0  0  0  0  0  0  0  0
  -50.3458   59.3920   64.9651 C   0  0  0  0  0  0  0  0  0  0  0  0
  -50.7036   60.3963   63.9318 C   0  0  0  0  0  0  0  0  0  0  0  0
  -50.4333   59.9842   62.4992 C   0  0  0  0  0  0  0  0  0  0  0  0
  -50.8268   58.5597   62.2200 C   0  0  0  0  0  0  0  0  0  0  0  0
  -49.8755   57.8077   61.3249 C   0  0  0  0  0  0  0  0  0  0  0  0
  -50.3598   57.7329   59.8936 C   0  0  0  0  0  0  0  0  0  0  0  0
  -49.3950   57.0987   58.9309 C   0  0  0  0  0  0  0  0  0  0  0  0
  -48.1532   56.6294   59.5765 C   0  0  0  0  0  0  0  0  0  0  0  0
  -47.5564   55.4716   58.9136 C   0  0  0  0  0  0  0  0  0  0  0  0
  -40.4676   60.6387   64.1969 O   0  0  0  0  0  0  0  0  0  0  0  0
  -40.1049   61.1516   62.8956 C   0  0  0  0  0  0  0  0  0  0  0  0
  -39.0436   60.2320   62.3366 C   0  0  0  0  0  0  0  0  0  0  0  0
  -38.2750   60.9316   61.3579 O   0  0  0  0  0  0  0  0  0  0  0  0
  -37.8081   61.6694   61.7803 H   0  0  0  0  0  0  0  0  0  0  0  0
  -38.0970   59.6526   63.3597 C   0  0  0  0  0  0  0  0  0  0  0  0
  -36.8410   59.3661   62.7124 O   0  0  0  0  0  0  0  0  0  0  0  0
  -36.6581   57.9990   61.9206 P   0  0  0  0  0  0  0  0  0  0  0  0
  -37.6852   57.0656   62.4256 O   0  0  0  0  0  0  0  0  0  0  0  0
  -36.6370   58.3367   60.4838 O   0  0  0  0  0  0  0  0  0  0  0  0
  -37.4963   58.7053   60.2257 H   0  0  0  0  0  0  0  0  0  0  0  0
  -35.2331   57.4033   62.2834 O   0  0  0  0  0  0  0  0  0  0  0  0
  -34.6638   57.6508   63.5904 C   0  0  0  0  0  0  0  0  0  0  0  0
  -33.7003   58.8019   63.4111 C   0  0  0  0  0  0  0  0  0  0  0  0
  -32.3755   58.4695   62.7537 N   0  0  0  0  0  0  0  0  0  0  0  0
  -32.5176   58.3834   61.2680 C   0  0  0  0  0  0  0  0  0  0  0  0
  -31.8803   57.1541   63.2633 C   0  0  0  0  0  0  0  0  0  0  0  0
  -31.3741   59.5334   63.0777 C   0  0  0  0  0  0  0  0  0  0  0  0
 34 33  1  0  0  0
 34 35  1  0  0  0
 34 36  1  0  0  0
 34 37  1  0  0  0
 22 23  1  0  0  0
 22 25  1  0  0  0
 22 21  1  0  0  0
 27 26  1  0  0  0
 27 28  2  0  0  0
 27 31  1  0  0  0
 27 29  1  0  0  0
 25 26  1  0  0  0
 32 33  1  0  0  0
 32 31  1  0  0  0
 20 21  1  0  0  0
 20  2  1  0  0  0
  1  2  2  0  0  0
  2  3  1  0  0  0
  3  4  1  0  0  0
  4  5  1  0  0  0
  5  6  1  0  0  0
  6  7  1  0  0  0
  7  8  1  0  0  0
  8  9  1  0  0  0
  9 10  1  0  0  0
 10 11  2  0  0  0
 11 12  1  0  0  0
 12 13  1  0  0  0
 13 14  1  0  0  0
 14 15  1  0  0  0
 15 16  1  0  0  0
 16 17  1  0  0  0
 17 18  1  0  0  0
 18 19  1  0  0  0
 23 24  1  0  0  0
 29 30  1  0  0  0
M  CHG 1  28  -1
M  END
> <minimizedAffinity>
-7.35458

> <CNNscore>
0.7024238110

> <CNNaffinity>
6.4281082153

> <CNN_VS>
4.5152564049

> <CNNaffinity_variance>
0.4422992170

$$$$



 37 36  0  0  0  0  0  0  0  0999 V2000
  -41.6953   62.1755   63.9215 O   0  0  0  0  0  0  0  0  0  0  0  0
  -41.2091   61.2173   64.4397 C   0  0  0  0  0  0  0  0  0  0  0  0
  -41.9284   59.9315   64.6853 C   0  0  0  0  0  0  0  0  0  0  0  0
  -43.1984   60.1104   65.4956 C   0  0  0  0  0  0  0  0  0  0  0  0
  -44.3617   59.3090   64.9523 C   0  0  0  0  0  0  0  0  0  0  0  0
  -44.9297   58.2962   65.9185 C   0  0  0  0  0  0  0  0  0  0  0  0
  -46.3995   58.4783   66.1994 C   0  0  0  0  0  0  0  0  0  0  0  0
  -46.8728   59.8749   65.8979 C   0  0  0  0  0  0  0  0  0  0  0  0
  -48.3216   59.9984   65.5293 C   0  0  0  0  0  0  0  0  0  0  0  0
  -49.0419   58.7172   65.5595 C   0  0  0  0  0  0  0  0  0  0  0  0
  -49.8532   58.2239   64.6501 C   0  0  0  0  0  0  0  0  0  0  0  0
  -50.2354   58.8218   63.3459 C   0  0  0  0  0  0  0  0  0  0  0  0
  -49.3732   58.4215   62.1661 C   0  0  0  0  0  0  0  0  0  0  0  0
  -50.1828   58.0426   60.9566 C   0  0  0  0  0  0  0  0  0  0  0  0
  -49.4076   58.0130   59.6643 C   0  0  0  0  0  0  0  0  0  0  0  0
  -49.1137   56.6053   59.1944 C   0  0  0  0  0  0  0  0  0  0  0  0
  -47.6662   56.2049   59.2604 C   0  0  0  0  0  0  0  0  0  0  0  0
  -47.1590   55.6468   57.9914 C   0  0  0  0  0  0  0  0  0  0  0  0
  -47.4428   56.4902   56.8320 C   0  0  0  0  0  0  0  0  0  0  0  0
  -39.9515   61.1698   64.8792 O   0  0  0  0  0  0  0  0  0  0  0  0
  -39.3991   59.8695   65.1827 C   0  0  0  0  0  0  0  0  0  0  0  0
  -38.0399   60.0989   65.8027 C   0  0  0  0  0  0  0  0  0  0  0  0
  -37.1473   59.0644   65.3891 O   0  0  0  0  0  0  0  0  0  0  0  0
  -37.0247   59.1083   64.4278 H   0  0  0  0  0  0  0  0  0  0  0  0
  -37.4070   61.4306   65.4796 C   0  0  0  0  0  0  0  0  0  0  0  0
  -36.0020   61.3596   65.7954 O   0  0  0  0  0  0  0  0  0  0  0  0
  -34.9447   61.1283   64.6301 P   0  0  0  0  0  0  0  0  0  0  0  0
  -35.7101   60.8070   63.4086 O   0  0  0  0  0  0  0  0  0  0  0  0
  -34.0467   62.2999   64.6290 O   0  0  0  0  0  0  0  0  0  0  0  0
  -34.5535   63.0955   64.4032 H   0  0  0  0  0  0  0  0  0  0  0  0
  -34.0641   59.8628   65.0043 O   0  0  0  0  0  0  0  0  0  0  0  0
  -32.8757   59.5631   64.2352 C   0  0  0  0  0  0  0  0  0  0  0  0
  -32.8972   58.0690   64.0053 C   0  0  0  0  0  0  0  0  0  0  0  0
  -33.5283   57.6003   62.7093 N   0  0  0  0  0  0  0  0  0  0  0  0
  -32.9115   56.3215   62.2410 C   0  0  0  0  0  0  0  0  0  0  0  0
  -33.3326   58.6400   61.6529 C   0  0  0  0  0  0  0  0  0  0  0  0
  -34.9933   57.3770   62.9171 C   0  0  0  0  0  0  0  0  0  0  0  0
 34 33  1  0  0  0
 34 35  1  0  0  0
 34 36  1  0  0  0
 34 37  1  0  0  0
 22 23  1  0  0  0
 22 25  1  0  0  0
 22 21  1  0  0  0
 27 26  1  0  0  0
 27 28  2  0  0  0
 27 31  1  0  0  0
 27 29  1  0  0  0
 25 26  1  0  0  0
 32 33  1  0  0  0
 32 31  1  0  0  0
 20 21  1  0  0  0
 20  2  1  0  0  0
  1  2  2  0  0  0
  2  3  1  0  0  0
  3  4  1  0  0  0
  4  5  1  0  0  0
  5  6  1  0  0  0
  6  7  1  0  0  0
  7  8  1  0  0  0
  8  9  1  0  0  0
  9 10  1  0  0  0
 10 11  2  0  0  0
 11 12  1  0  0  0
 12 13  1  0  0  0
 13 14  1  0  0  0
 14 15  1  0  0  0
 15 16  1  0  0  0
 16 17  1  0  0  0
 17 18  1  0  0  0
 18 19  1  0  0  0
 23 24  1  0  0  0
 29 30  1  0  0  0
M  CHG 1  28  -1
M  END
> <minimizedAffinity>
-6.52116

> <CNNscore>
0.6981350780

> <CNNaffinity>
6.5299706459

> <CNN_VS>
4.5588016510

> <CNNaffinity_variance>
0.6682673693

$$$$



 37 36  0  0  0  0  0  0  0  0999 V2000
  -42.2723   60.3499   67.2992 O   0  0  0  0  0  0  0  0  0  0  0  0
  -42.1399   60.0113   66.1630 C   0  0  0  0  0  0  0  0  0  0  0  0
  -42.9104   58.9090   65.5132 C   0  0  0  0  0  0  0  0  0  0  0  0
  -44.3314   59.3082   65.1628 C   0  0  0  0  0  0  0  0  0  0  0  0
  -45.2625   59.2801   66.3556 C   0  0  0  0  0  0  0  0  0  0  0  0
  -46.7176   59.5069   66.0195 C   0  0  0  0  0  0  0  0  0  0  0  0
  -47.2094   58.6883   64.8531 C   0  0  0  0  0  0  0  0  0  0  0  0
  -48.2170   57.6490   65.2655 C   0  0  0  0  0  0  0  0  0  0  0  0
  -49.6092   57.8613   64.7489 C   0  0  0  0  0  0  0  0  0  0  0  0
  -50.1987   59.1402   65.1708 C   0  0  0  0  0  0  0  0  0  0  0  0
  -50.7909   60.0440   64.4217 C   0  0  0  0  0  0  0  0  0  0  0  0
  -51.0387   59.9979   62.9585 C   0  0  0  0  0  0  0  0  0  0  0  0
  -49.8477   60.3317   62.0836 C   0  0  0  0  0  0  0  0  0  0  0  0
  -49.7229   59.4155   60.8974 C   0  0  0  0  0  0  0  0  0  0  0  0
  -50.2558   58.0231   61.1187 C   0  0  0  0  0  0  0  0  0  0  0  0
  -49.4786   56.9745   60.3537 C   0  0  0  0  0  0  0  0  0  0  0  0
  -49.3960   57.2041   58.8704 C   0  0  0  0  0  0  0  0  0  0  0  0
  -48.1188   56.7545   58.2826 C   0  0  0  0  0  0  0  0  0  0  0  0
  -47.4577   55.7092   59.0615 C   0  0  0  0  0  0  0  0  0  0  0  0
  -41.2739   60.5711   65.3183 O   0  0  0  0  0  0  0  0  0  0  0  0
  -40.0553   59.8482   65.0349 C   0  0  0  0  0  0  0  0  0  0  0  0
  -38.9114   60.8194   65.2153 C   0  0  0  0  0  0  0  0  0  0  0  0
  -39.4217   62.0812   65.6460 O   0  0  0  0  0  0  0  0  0  0  0  0
  -39.8401   61.9810   66.5153 H   0  0  0  0  0  0  0  0  0  0  0  0
  -37.8470   60.3787   66.1907 C   0  0  0  0  0  0  0  0  0  0  0  0
  -36.5543   60.6570   65.6160 O   0  0  0  0  0  0  0  0  0  0  0  0
  -35.7958   62.0011   66.0001 P   0  0  0  0  0  0  0  0  0  0  0  0
  -36.4554   63.0966   65.2613 O   0  0  0  0  0  0  0  0  0  0  0  0
  -35.7444   62.0565   67.4743 O   0  0  0  0  0  0  0  0  0  0  0  0
  -36.6455   62.1244   67.8270 H   0  0  0  0  0  0  0  0  0  0  0  0
  -34.3002   61.8911   65.4825 O   0  0  0  0  0  0  0  0  0  0  0  0
  -33.9163   62.5506   64.2531 C   0  0  0  0  0  0  0  0  0  0  0  0
  -32.7503   63.4445   64.6095 C   0  0  0  0  0  0  0  0  0  0  0  0
  -32.7938   64.8544   64.0547 N   0  0  0  0  0  0  0  0  0  0  0  0
  -34.1704   65.2094   63.5921 C   0  0  0  0  0  0  0  0  0  0  0  0
  -31.8568   64.9647   62.8949 C   0  0  0  0  0  0  0  0  0  0  0  0
  -32.3810   65.8242   65.1170 C   0  0  0  0  0  0  0  0  0  0  0  0
 34 33  1  0  0  0
 34 35  1  0  0  0
 34 36  1  0  0  0
 34 37  1  0  0  0
 22 23  1  0  0  0
 22 25  1  0  0  0
 22 21  1  0  0  0
 27 26  1  0  0  0
 27 28  2  0  0  0
 27 31  1  0  0  0
 27 29  1  0  0  0
 25 26  1  0  0  0
 32 33  1  0  0  0
 32 31  1  0  0  0
 20 21  1  0  0  0
 20  2  1  0  0  0
  1  2  2  0  0  0
  2  3  1  0  0  0
  3  4  1  0  0  0
  4  5  1  0  0  0
  5  6  1  0  0  0
  6  7  1  0  0  0
  7  8  1  0  0  0
  8  9  1  0  0  0
  9 10  1  0  0  0
 10 11  2  0  0  0
 11 12  1  0  0  0
 12 13  1  0  0  0
 13 14  1  0  0  0
 14 15  1  0  0  0
 15 16  1  0  0  0
 16 17  1  0  0  0
 17 18  1  0  0  0
 18 19  1  0  0  0
 23 24  1  0  0  0
 29 30  1  0  0  0
M  CHG 1  28  -1
M  END
> <minimizedAffinity>
-7.96613

> <CNNscore>
0.6455667615

> <CNNaffinity>
6.1503524780

> <CNN_VS>
3.9704630375

> <CNNaffinity_variance>
0.2767238021

$$$$



 37 36  0  0  0  0  0  0  0  0999 V2000
  -41.7280   61.5433   64.4291 O   0  0  0  0  0  0  0  0  0  0  0  0
  -41.5287   60.4282   64.8028 C   0  0  0  0  0  0  0  0  0  0  0  0
  -42.6003   59.4305   65.0985 C   0  0  0  0  0  0  0  0  0  0  0  0
  -43.8223   60.0512   65.7487 C   0  0  0  0  0  0  0  0  0  0  0  0
  -45.1060   59.7355   65.0118 C   0  0  0  0  0  0  0  0  0  0  0  0
  -46.1785   59.1014   65.8659 C   0  0  0  0  0  0  0  0  0  0  0  0
  -47.5760   59.5527   65.5257 C   0  0  0  0  0  0  0  0  0  0  0  0
  -47.5870   60.7936   64.6740 C   0  0  0  0  0  0  0  0  0  0  0  0
  -48.8705   61.0635   63.9459 C   0  0  0  0  0  0  0  0  0  0  0  0
  -50.0326   60.3911   64.5446 C   0  0  0  0  0  0  0  0  0  0  0  0
  -50.9370   59.6504   63.9429 C   0  0  0  0  0  0  0  0  0  0  0  0
  -51.0074   59.2815   62.5064 C   0  0  0  0  0  0  0  0  0  0  0  0
  -50.2761   58.0117   62.1216 C   0  0  0  0  0  0  0  0  0  0  0  0
  -50.6866   57.4909   60.7716 C   0  0  0  0  0  0  0  0  0  0  0  0
  -49.8482   57.9903   59.6228 C   0  0  0  0  0  0  0  0  0  0  0  0
  -49.1842   56.8676   58.8564 C   0  0  0  0  0  0  0  0  0  0  0  0
  -47.8672   56.4097   59.4181 C   0  0  0  0  0  0  0  0  0  0  0  0
  -47.0149   55.7306   58.4224 C   0  0  0  0  0  0  0  0  0  0  0  0
  -46.8812   56.4728   57.1704 C   0  0  0  0  0  0  0  0  0  0  0  0
  -40.3135   59.9233   65.0155 O   0  0  0  0  0  0  0  0  0  0  0  0
  -40.1642   58.4880   64.9397 C   0  0  0  0  0  0  0  0  0  0  0  0
  -38.7702   58.2138   64.4240 C   0  0  0  0  0  0  0  0  0  0  0  0
  -38.8513   57.5527   63.1613 O   0  0  0  0  0  0  0  0  0  0  0  0
  -39.2754   58.1395   62.5157 H   0  0  0  0  0  0  0  0  0  0  0  0
  -37.8958   59.4340   64.2668 C   0  0  0  0  0  0  0  0  0  0  0  0
  -36.9151   59.1672   63.2441 O   0  0  0  0  0  0  0  0  0  0  0  0
  -35.4867   58.5999   63.6531 P   0  0  0  0  0  0  0  0  0  0  0  0
  -34.9717   59.4633   64.7350 O   0  0  0  0  0  0  0  0  0  0  0  0
  -35.6565   57.1553   63.9047 O   0  0  0  0  0  0  0  0  0  0  0  0
  -36.2451   57.0266   64.6649 H   0  0  0  0  0  0  0  0  0  0  0  0
  -34.5190   58.7479   62.4046 O   0  0  0  0  0  0  0  0  0  0  0  0
  -33.4579   57.7854   62.2015 C   0  0  0  0  0  0  0  0  0  0  0  0
  -32.2193   58.5943   61.8898 C   0  0  0  0  0  0  0  0  0  0  0  0
  -31.5629   59.2926   63.0643 N   0  0  0  0  0  0  0  0  0  0  0  0
  -31.7041   58.4887   64.3168 C   0  0  0  0  0  0  0  0  0  0  0  0
  -32.2063   60.6254   63.2770 C   0  0  0  0  0  0  0  0  0  0  0  0
  -30.1063   59.4868   62.7818 C   0  0  0  0  0  0  0  0  0  0  0  0
 34 33  1  0  0  0
 34 35  1  0  0  0
 34 36  1  0  0  0
 34 37  1  0  0  0
 22 23  1  0  0  0
 22 25  1  0  0  0
 22 21  1  0  0  0
 27 26  1  0  0  0
 27 28  2  0  0  0
 27 31  1  0  0  0
 27 29  1  0  0  0
 25 26  1  0  0  0
 32 33  1  0  0  0
 32 31  1  0  0  0
 20 21  1  0  0  0
 20  2  1  0  0  0
  1  2  2  0  0  0
  2  3  1  0  0  0
  3  4  1  0  0  0
  4  5  1  0  0  0
  5  6  1  0  0  0
  6  7  1  0  0  0
  7  8  1  0  0  0
  8  9  1  0  0  0
  9 10  1  0  0  0
 10 11  2  0  0  0
 11 12  1  0  0  0
 12 13  1  0  0  0
 13 14  1  0  0  0
 14 15  1  0  0  0
 15 16  1  0  0  0
 16 17  1  0  0  0
 17 18  1  0  0  0
 18 19  1  0  0  0
 23 24  1  0  0  0
 29 30  1  0  0  0
M  CHG 1  28  -1
M  END
> <minimizedAffinity>
-6.98371

> <CNNscore>
0.6058983207

> <CNNaffinity>
6.2276935577

> <CNN_VS>
3.7733490467

> <CNNaffinity_variance>
0.6677213907

$$$$



 37 36  0  0  0  0  0  0  0  0999 V2000
  -41.6242   60.7033   63.5179 O   0  0  0  0  0  0  0  0  0  0  0  0
  -40.7964   60.4315   64.3326 C   0  0  0  0  0  0  0  0  0  0  0  0
  -40.7545   59.1521   65.1023 C   0  0  0  0  0  0  0  0  0  0  0  0
  -41.9938   58.9310   65.9489 C   0  0  0  0  0  0  0  0  0  0  0  0
  -42.5293   57.5188   65.8520 C   0  0  0  0  0  0  0  0  0  0  0  0
  -44.0233   57.4284   65.6479 C   0  0  0  0  0  0  0  0  0  0  0  0
  -44.5772   58.4791   64.7197 C   0  0  0  0  0  0  0  0  0  0  0  0
  -45.3904   59.5162   65.4466 C   0  0  0  0  0  0  0  0  0  0  0  0
  -46.8393   59.5829   65.0640 C   0  0  0  0  0  0  0  0  0  0  0  0
  -47.5085   58.2742   65.0849 C   0  0  0  0  0  0  0  0  0  0  0  0
  -48.3764   57.7957   64.2209 C   0  0  0  0  0  0  0  0  0  0  0  0
  -48.8892   58.4432   62.9872 C   0  0  0  0  0  0  0  0  0  0  0  0
  -50.3217   58.1111   62.6223 C   0  0  0  0  0  0  0  0  0  0  0  0
  -50.4890   57.7833   61.1640 C   0  0  0  0  0  0  0  0  0  0  0  0
  -49.2852   57.1443   60.5204 C   0  0  0  0  0  0  0  0  0  0  0  0
  -49.3712   57.1318   59.0100 C   0  0  0  0  0  0  0  0  0  0  0  0
  -48.0460   57.1254   58.3003 C   0  0  0  0  0  0  0  0  0  0  0  0
  -47.4881   55.7703   58.1228 C   0  0  0  0  0  0  0  0  0  0  0  0
  -47.4964   55.3167   56.7334 C   0  0  0  0  0  0  0  0  0  0  0  0
  -39.7956   61.2437   64.6727 O   0  0  0  0  0  0  0  0  0  0  0  0
  -38.6815   60.6665   65.3894 C   0  0  0  0  0  0  0  0  0  0  0  0
  -37.6257   61.7416   65.5079 C   0  0  0  0  0  0  0  0  0  0  0  0
  -36.8762   61.5426   66.7066 O   0  0  0  0  0  0  0  0  0  0  0  0
  -36.4055   60.6959   66.6568 H   0  0  0  0  0  0  0  0  0  0  0  0
  -36.6600   61.8188   64.3503 C   0  0  0  0  0  0  0  0  0  0  0  0
  -36.4562   63.2061   64.0145 O   0  0  0  0  0  0  0  0  0  0  0  0
  -35.0496   63.8879   64.3078 P   0  0  0  0  0  0  0  0  0  0  0  0
  -34.0816   63.3111   63.3531 O   0  0  0  0  0  0  0  0  0  0  0  0
  -35.2743   65.3468   64.3115 O   0  0  0  0  0  0  0  0  0  0  0  0
  -35.5536   65.6332   63.4278 H   0  0  0  0  0  0  0  0  0  0  0  0
  -34.5970   63.4793   65.7724 O   0  0  0  0  0  0  0  0  0  0  0  0
  -33.6677   64.3195   66.4965 C   0  0  0  0  0  0  0  0  0  0  0  0
  -32.3284   64.1341   65.8199 C   0  0  0  0  0  0  0  0  0  0  0  0
  -31.4535   65.3678   65.7184 N   0  0  0  0  0  0  0  0  0  0  0  0
  -31.6783   66.2849   66.8774 C   0  0  0  0  0  0  0  0  0  0  0  0
  -31.7723   66.1047   64.4572 C   0  0  0  0  0  0  0  0  0  0  0  0
  -30.0134   64.9611   65.7022 C   0  0  0  0  0  0  0  0  0  0  0  0
 34 33  1  0  0  0
 34 35  1  0  0  0
 34 36  1  0  0  0
 34 37  1  0  0  0
 22 23  1  0  0  0
 22 25  1  0  0  0
 22 21  1  0  0  0
 27 26  1  0  0  0
 27 28  2  0  0  0
 27 31  1  0  0  0
 27 29  1  0  0  0
 25 26  1  0  0  0
 32 33  1  0  0  0
 32 31  1  0  0  0
 20 21  1  0  0  0
 20  2  1  0  0  0
  1  2  2  0  0  0
  2  3  1  0  0  0
  3  4  1  0  0  0
  4  5  1  0  0  0
  5  6  1  0  0  0
  6  7  1  0  0  0
  7  8  1  0  0  0
  8  9  1  0  0  0
  9 10  1  0  0  0
 10 11  2  0  0  0
 11 12  1  0  0  0
 12 13  1  0  0  0
 13 14  1  0  0  0
 14 15  1  0  0  0
 15 16  1  0  0  0
 16 17  1  0  0  0
 17 18  1  0  0  0
 18 19  1  0  0  0
 23 24  1  0  0  0
 29 30  1  0  0  0
M  CHG 1  28  -1
M  END
> <minimizedAffinity>
-7.79366

> <CNNscore>
0.6013019681

> <CNNaffinity>
6.1885480881

> <CNN_VS>
3.7211861610

> <CNNaffinity_variance>
0.4075245857

$$$$



 37 36  0  0  0  0  0  0  0  0999 V2000
  -42.1696   62.2933   63.3926 O   0  0  0  0  0  0  0  0  0  0  0  0
  -41.5881   61.2652   63.5595 C   0  0  0  0  0  0  0  0  0  0  0  0
  -42.2462   59.9629   63.8790 C   0  0  0  0  0  0  0  0  0  0  0  0
  -43.2935   60.0821   64.9700 C   0  0  0  0  0  0  0  0  0  0  0  0
  -44.4919   59.1878   64.7366 C   0  0  0  0  0  0  0  0  0  0  0  0
  -45.0695   58.5749   65.9907 C   0  0  0  0  0  0  0  0  0  0  0  0
  -46.5725   58.6556   66.0730 C   0  0  0  0  0  0  0  0  0  0  0  0
  -47.0974   60.0088   65.6748 C   0  0  0  0  0  0  0  0  0  0  0  0
  -48.4949   60.0226   65.1299 C   0  0  0  0  0  0  0  0  0  0  0  0
  -49.1705   58.7205   65.2253 C   0  0  0  0  0  0  0  0  0  0  0  0
  -49.8872   58.1120   64.3062 C   0  0  0  0  0  0  0  0  0  0  0  0
  -50.1819   58.5708   62.9253 C   0  0  0  0  0  0  0  0  0  0  0  0
  -49.5586   57.7477   61.8165 C   0  0  0  0  0  0  0  0  0  0  0  0
  -50.5241   57.4457   60.7036 C   0  0  0  0  0  0  0  0  0  0  0  0
  -49.8786   57.1297   59.3787 C   0  0  0  0  0  0  0  0  0  0  0  0
  -48.8626   56.0132   59.4784 C   0  0  0  0  0  0  0  0  0  0  0  0
  -47.4835   56.3670   58.9962 C   0  0  0  0  0  0  0  0  0  0  0  0
  -46.9476   55.4066   58.0115 C   0  0  0  0  0  0  0  0  0  0  0  0
  -47.7523   55.3131   56.7949 C   0  0  0  0  0  0  0  0  0  0  0  0
  -40.2625   61.1432   63.4905 O   0  0  0  0  0  0  0  0  0  0  0  0
  -39.7319   60.0798   62.6685 C   0  0  0  0  0  0  0  0  0  0  0  0
  -38.2257   60.1994   62.7067 C   0  0  0  0  0  0  0  0  0  0  0  0
  -37.7440   60.5614   61.4125 O   0  0  0  0  0  0  0  0  0  0  0  0
  -38.0858   61.4372   61.1736 H   0  0  0  0  0  0  0  0  0  0  0  0
  -37.6889   61.1923   63.7090 C   0  0  0  0  0  0  0  0  0  0  0  0
  -36.2510   61.0886   63.7328 O   0  0  0  0  0  0  0  0  0  0  0  0
  -35.5638   59.8495   64.4551 P   0  0  0  0  0  0  0  0  0  0  0  0
  -36.5921   59.2213   65.3090 O   0  0  0  0  0  0  0  0  0  0  0  0
  -34.9154   59.0456   63.4004 O   0  0  0  0  0  0  0  0  0  0  0  0
  -35.5919   58.6906   62.8026 H   0  0  0  0  0  0  0  0  0  0  0  0
  -34.4134   60.4014   65.3979 O   0  0  0  0  0  0  0  0  0  0  0  0
  -34.7244   61.3956   66.4023 C   0  0  0  0  0  0  0  0  0  0  0  0
  -33.6603   62.4617   66.2729 C   0  0  0  0  0  0  0  0  0  0  0  0
  -34.1484   63.8967   66.2631 N   0  0  0  0  0  0  0  0  0  0  0  0
  -34.9014   64.2014   65.0080 C   0  0  0  0  0  0  0  0  0  0  0  0
  -32.9789   64.8235   66.3555 C   0  0  0  0  0  0  0  0  0  0  0  0
  -35.0540   64.1262   67.4321 C   0  0  0  0  0  0  0  0  0  0  0  0
 34 33  1  0  0  0
 34 35  1  0  0  0
 34 36  1  0  0  0
 34 37  1  0  0  0
 22 23  1  0  0  0
 22 25  1  0  0  0
 22 21  1  0  0  0
 27 26  1  0  0  0
 27 28  2  0  0  0
 27 31  1  0  0  0
 27 29  1  0  0  0
 25 26  1  0  0  0
 32 33  1  0  0  0
 32 31  1  0  0  0
 20 21  1  0  0  0
 20  2  1  0  0  0
  1  2  2  0  0  0
  2  3  1  0  0  0
  3  4  1  0  0  0
  4  5  1  0  0  0
  5  6  1  0  0  0
  6  7  1  0  0  0
  7  8  1  0  0  0
  8  9  1  0  0  0
  9 10  1  0  0  0
 10 11  2  0  0  0
 11 12  1  0  0  0
 12 13  1  0  0  0
 13 14  1  0  0  0
 14 15  1  0  0  0
 15 16  1  0  0  0
 16 17  1  0  0  0
 17 18  1  0  0  0
 18 19  1  0  0  0
 23 24  1  0  0  0
 29 30  1  0  0  0
M  CHG 1  28  -1
M  END
> <minimizedAffinity>
-7.21488

> <CNNscore>
0.5789536238

> <CNNaffinity>
6.4188346863

> <CNN_VS>
3.7162075043

> <CNNaffinity_variance>
0.9133771062

$$$$



 37 36  0  0  0  0  0  0  0  0999 V2000
  -42.2343   60.3207   63.6109 O   0  0  0  0  0  0  0  0  0  0  0  0
  -41.4096   60.0272   64.4213 C   0  0  0  0  0  0  0  0  0  0  0  0
  -41.5730   58.9503   65.4434 C   0  0  0  0  0  0  0  0  0  0  0  0
  -42.4978   59.3482   66.5782 C   0  0  0  0  0  0  0  0  0  0  0  0
  -43.8981   59.6786   66.1087 C   0  0  0  0  0  0  0  0  0  0  0  0
  -44.7358   58.4761   65.7424 C   0  0  0  0  0  0  0  0  0  0  0  0
  -46.0502   58.8234   65.0913 C   0  0  0  0  0  0  0  0  0  0  0  0
  -46.7633   59.9438   65.7996 C   0  0  0  0  0  0  0  0  0  0  0  0
  -47.9893   60.4647   65.1098 C   0  0  0  0  0  0  0  0  0  0  0  0
  -49.2138   59.7337   65.4668 C   0  0  0  0  0  0  0  0  0  0  0  0
  -50.0476   59.1115   64.6630 C   0  0  0  0  0  0  0  0  0  0  0  0
  -49.9577   58.9657   63.1882 C   0  0  0  0  0  0  0  0  0  0  0  0
  -48.9893   57.9105   62.6940 C   0  0  0  0  0  0  0  0  0  0  0  0
  -49.5210   57.1389   61.5175 C   0  0  0  0  0  0  0  0  0  0  0  0
  -49.8246   57.9757   60.3012 C   0  0  0  0  0  0  0  0  0  0  0  0
  -48.7287   57.9082   59.2605 C   0  0  0  0  0  0  0  0  0  0  0  0
  -48.8876   56.8126   58.2436 C   0  0  0  0  0  0  0  0  0  0  0  0
  -47.7272   56.6853   57.3399 C   0  0  0  0  0  0  0  0  0  0  0  0
  -47.6199   55.3683   56.7154 C   0  0  0  0  0  0  0  0  0  0  0  0
  -40.2264   60.6319   64.5279 O   0  0  0  0  0  0  0  0  0  0  0  0
  -39.7127   61.3051   63.3571 C   0  0  0  0  0  0  0  0  0  0  0  0
  -38.2569   60.9204   63.2274 C   0  0  0  0  0  0  0  0  0  0  0  0
  -37.7706   61.3222   61.9466 O   0  0  0  0  0  0  0  0  0  0  0  0
  -37.8096   62.2887   61.8746 H   0  0  0  0  0  0  0  0  0  0  0  0
  -37.3470   61.4980   64.2842 C   0  0  0  0  0  0  0  0  0  0  0  0
  -36.1302   61.9409   63.6500 O   0  0  0  0  0  0  0  0  0  0  0  0
  -34.7906   62.0401   64.5015 P   0  0  0  0  0  0  0  0  0  0  0  0
  -35.1354   62.7036   65.7751 O   0  0  0  0  0  0  0  0  0  0  0  0
  -34.2021   60.6867   64.5317 O   0  0  0  0  0  0  0  0  0  0  0  0
  -34.7987   60.0852   65.0040 H   0  0  0  0  0  0  0  0  0  0  0  0
  -33.7752   62.9757   63.7200 O   0  0  0  0  0  0  0  0  0  0  0  0
  -32.8976   63.8571   64.4594 C   0  0  0  0  0  0  0  0  0  0  0  0
  -31.6956   64.0849   63.5713 C   0  0  0  0  0  0  0  0  0  0  0  0
  -31.3997   65.5250   63.2019 N   0  0  0  0  0  0  0  0  0  0  0  0
  -32.5508   66.1423   62.4747 C   0  0  0  0  0  0  0  0  0  0  0  0
  -30.1938   65.5774   62.3196 C   0  0  0  0  0  0  0  0  0  0  0  0
  -31.1378   66.3175   64.4439 C   0  0  0  0  0  0  0  0  0  0  0  0
 34 33  1  0  0  0
 34 35  1  0  0  0
 34 36  1  0  0  0
 34 37  1  0  0  0
 22 23  1  0  0  0
 22 25  1  0  0  0
 22 21  1  0  0  0
 27 26  1  0  0  0
 27 28  2  0  0  0
 27 31  1  0  0  0
 27 29  1  0  0  0
 25 26  1  0  0  0
 32 33  1  0  0  0
 32 31  1  0  0  0
 20 21  1  0  0  0
 20  2  1  0  0  0
  1  2  2  0  0  0
  2  3  1  0  0  0
  3  4  1  0  0  0
  4  5  1  0  0  0
  5  6  1  0  0  0
  6  7  1  0  0  0
  7  8  1  0  0  0
  8  9  1  0  0  0
  9 10  1  0  0  0
 10 11  2  0  0  0
 11 12  1  0  0  0
 12 13  1  0  0  0
 13 14  1  0  0  0
 14 15  1  0  0  0
 15 16  1  0  0  0
 16 17  1  0  0  0
 17 18  1  0  0  0
 18 19  1  0  0  0
 23 24  1  0  0  0
 29 30  1  0  0  0
M  CHG 1  28  -1
M  END
> <minimizedAffinity>
-7.06022

> <CNNscore>
0.5658980608

> <CNNaffinity>
5.9792695045

> <CNN_VS>
3.3836569786

> <CNNaffinity_variance>
0.6487364173

$$$$



 37 36  0  0  0  0  0  0  0  0999 V2000
  -40.5109   60.1878   66.2485 O   0  0  0  0  0  0  0  0  0  0  0  0
  -40.8844   59.4142   65.4208 C   0  0  0  0  0  0  0  0  0  0  0  0
  -42.2588   59.3982   64.8361 C   0  0  0  0  0  0  0  0  0  0  0  0
  -43.3483   59.5222   65.8845 C   0  0  0  0  0  0  0  0  0  0  0  0
  -44.7394   59.5447   65.2888 C   0  0  0  0  0  0  0  0  0  0  0  0
  -45.5803   58.3333   65.6161 C   0  0  0  0  0  0  0  0  0  0  0  0
  -46.8187   58.2024   64.7666 C   0  0  0  0  0  0  0  0  0  0  0  0
  -48.0821   58.4089   65.5582 C   0  0  0  0  0  0  0  0  0  0  0  0
  -48.3927   59.8322   65.9157 C   0  0  0  0  0  0  0  0  0  0  0  0
  -48.3442   60.7460   64.7652 C   0  0  0  0  0  0  0  0  0  0  0  0
  -49.2680   60.9451   63.8510 C   0  0  0  0  0  0  0  0  0  0  0  0
  -50.6094   60.3158   63.7555 C   0  0  0  0  0  0  0  0  0  0  0  0
  -51.0202   59.8610   62.3699 C   0  0  0  0  0  0  0  0  0  0  0  0
  -50.8212   58.3850   62.1598 C   0  0  0  0  0  0  0  0  0  0  0  0
  -49.3806   57.9437   62.1186 C   0  0  0  0  0  0  0  0  0  0  0  0
  -49.0718   57.0772   60.9175 C   0  0  0  0  0  0  0  0  0  0  0  0
  -49.6135   57.5885   59.6117 C   0  0  0  0  0  0  0  0  0  0  0  0
  -48.9813   56.9610   58.4345 C   0  0  0  0  0  0  0  0  0  0  0  0
  -48.0139   55.9215   58.7805 C   0  0  0  0  0  0  0  0  0  0  0  0
  -40.1207   58.4485   64.9100 O   0  0  0  0  0  0  0  0  0  0  0  0
  -39.0802   58.8384   63.9862 C   0  0  0  0  0  0  0  0  0  0  0  0
  -37.7820   58.2750   64.5169 C   0  0  0  0  0  0  0  0  0  0  0  0
  -37.2616   57.3230   63.5890 O   0  0  0  0  0  0  0  0  0  0  0  0
  -37.0498   57.7682   62.7536 H   0  0  0  0  0  0  0  0  0  0  0  0
  -36.7096   59.2988   64.7998 C   0  0  0  0  0  0  0  0  0  0  0  0
  -37.2515   60.2979   65.6870 O   0  0  0  0  0  0  0  0  0  0  0  0
  -37.4381   61.7904   65.1703 P   0  0  0  0  0  0  0  0  0  0  0  0
  -37.1452   61.7872   63.7228 O   0  0  0  0  0  0  0  0  0  0  0  0
  -38.7649   62.2408   65.6348 O   0  0  0  0  0  0  0  0  0  0  0  0
  -39.4542   61.7031   65.2145 H   0  0  0  0  0  0  0  0  0  0  0  0
  -36.3558   62.7019   65.8879 O   0  0  0  0  0  0  0  0  0  0  0  0
  -34.9652   62.6047   65.4997 C   0  0  0  0  0  0  0  0  0  0  0  0
  -34.6055   63.9490   64.9089 C   0  0  0  0  0  0  0  0  0  0  0  0
  -33.1386   64.3287   64.9534 N   0  0  0  0  0  0  0  0  0  0  0  0
  -32.9287   65.7265   64.4666 C   0  0  0  0  0  0  0  0  0  0  0  0
  -32.3544   63.3976   64.0854 C   0  0  0  0  0  0  0  0  0  0  0  0
  -32.6381   64.2317   66.3604 C   0  0  0  0  0  0  0  0  0  0  0  0
 34 33  1  0  0  0
 34 35  1  0  0  0
 34 36  1  0  0  0
 34 37  1  0  0  0
 22 23  1  0  0  0
 22 25  1  0  0  0
 22 21  1  0  0  0
 27 26  1  0  0  0
 27 28  2  0  0  0
 27 31  1  0  0  0
 27 29  1  0  0  0
 25 26  1  0  0  0
 32 33  1  0  0  0
 32 31  1  0  0  0
 20 21  1  0  0  0
 20  2  1  0  0  0
  1  2  2  0  0  0
  2  3  1  0  0  0
  3  4  1  0  0  0
  4  5  1  0  0  0
  5  6  1  0  0  0
  6  7  1  0  0  0
  7  8  1  0  0  0
  8  9  1  0  0  0
  9 10  1  0  0  0
 10 11  2  0  0  0
 11 12  1  0  0  0
 12 13  1  0  0  0
 13 14  1  0  0  0
 14 15  1  0  0  0
 15 16  1  0  0  0
 16 17  1  0  0  0
 17 18  1  0  0  0
 18 19  1  0  0  0
 23 24  1  0  0  0
 29 30  1  0  0  0
M  CHG 1  28  -1
M  END
> <minimizedAffinity>
-7.74835

> <CNNscore>
0.5652019978

> <CNNaffinity>
6.1267552376

> <CNN_VS>
3.4628543854

> <CNNaffinity_variance>
0.3082119823

$$$$



 37 36  0  0  0  0  0  0  0  0999 V2000
  -42.4949   60.9155   63.9908 O   0  0  0  0  0  0  0  0  0  0  0  0
  -41.5952   60.2162   64.3437 C   0  0  0  0  0  0  0  0  0  0  0  0
  -41.7618   58.9454   65.1108 C   0  0  0  0  0  0  0  0  0  0  0  0
  -43.1016   58.8526   65.8165 C   0  0  0  0  0  0  0  0  0  0  0  0
  -44.1291   58.0685   65.0291 C   0  0  0  0  0  0  0  0  0  0  0  0
  -45.0358   57.2023   65.8714 C   0  0  0  0  0  0  0  0  0  0  0  0
  -46.4785   57.6390   65.8619 C   0  0  0  0  0  0  0  0  0  0  0  0
  -46.7240   58.7892   64.9227 C   0  0  0  0  0  0  0  0  0  0  0  0
  -47.9104   59.6465   65.2507 C   0  0  0  0  0  0  0  0  0  0  0  0
  -49.1376   58.8747   65.4945 C   0  0  0  0  0  0  0  0  0  0  0  0
  -50.3221   59.0456   64.9501 C   0  0  0  0  0  0  0  0  0  0  0  0
  -50.7231   60.0480   63.9308 C   0  0  0  0  0  0  0  0  0  0  0  0
  -50.3877   59.6916   62.4970 C   0  0  0  0  0  0  0  0  0  0  0  0
  -50.6966   58.2570   62.1671 C   0  0  0  0  0  0  0  0  0  0  0  0
  -49.7294   57.6090   61.2098 C   0  0  0  0  0  0  0  0  0  0  0  0
  -50.2633   57.5487   59.7956 C   0  0  0  0  0  0  0  0  0  0  0  0
  -49.2957   57.0166   58.7755 C   0  0  0  0  0  0  0  0  0  0  0  0
  -47.9795   56.6707   59.3476 C   0  0  0  0  0  0  0  0  0  0  0  0
  -47.3169   55.5682   58.6536 C   0  0  0  0  0  0  0  0  0  0  0  0
  -40.3111   60.4826   64.1051 O   0  0  0  0  0  0  0  0  0  0  0  0
  -39.9758   61.0590   62.8232 C   0  0  0  0  0  0  0  0  0  0  0  0
  -38.9814   60.1300   62.1656 C   0  0  0  0  0  0  0  0  0  0  0  0
  -38.0988   60.8868   61.3370 O   0  0  0  0  0  0  0  0  0  0  0  0
  -37.5850   61.4991   61.8865 H   0  0  0  0  0  0  0  0  0  0  0  0
  -38.1498   59.3064   63.1188 C   0  0  0  0  0  0  0  0  0  0  0  0
  -36.7588   59.4790   62.7810 O   0  0  0  0  0  0  0  0  0  0  0  0
  -35.7323   58.2932   63.0450 P   0  0  0  0  0  0  0  0  0  0  0  0
  -36.4532   57.2603   63.8161 O   0  0  0  0  0  0  0  0  0  0  0  0
  -35.1458   57.9367   61.7381 O   0  0  0  0  0  0  0  0  0  0  0  0
  -35.8402   57.5912   61.1555 H   0  0  0  0  0  0  0  0  0  0  0  0
  -34.5550   58.8497   63.9512 O   0  0  0  0  0  0  0  0  0  0  0  0
  -34.8497   59.7848   65.0154 C   0  0  0  0  0  0  0  0  0  0  0  0
  -34.4236   61.1420   64.5037 C   0  0  0  0  0  0  0  0  0  0  0  0
  -35.2110   62.3296   65.0207 N   0  0  0  0  0  0  0  0  0  0  0  0
  -34.5859   62.8944   66.2557 C   0  0  0  0  0  0  0  0  0  0  0  0
  -36.6066   61.9019   65.3444 C   0  0  0  0  0  0  0  0  0  0  0  0
  -35.2522   63.3980   63.9737 C   0  0  0  0  0  0  0  0  0  0  0  0
 34 33  1  0  0  0
 34 35  1  0  0  0
 34 36  1  0  0  0
 34 37  1  0  0  0
 22 23  1  0  0  0
 22 25  1  0  0  0
 22 21  1  0  0  0
 27 26  1  0  0  0
 27 28  2  0  0  0
 27 31  1  0  0  0
 27 29  1  0  0  0
 25 26  1  0  0  0
 32 33  1  0  0  0
 32 31  1  0  0  0
 20 21  1  0  0  0
 20  2  1  0  0  0
  1  2  2  0  0  0
  2  3  1  0  0  0
  3  4  1  0  0  0
  4  5  1  0  0  0
  5  6  1  0  0  0
  6  7  1  0  0  0
  7  8  1  0  0  0
  8  9  1  0  0  0
  9 10  1  0  0  0
 10 11  2  0  0  0
 11 12  1  0  0  0
 12 13  1  0  0  0
 13 14  1  0  0  0
 14 15  1  0  0  0
 15 16  1  0  0  0
 16 17  1  0  0  0
 17 18  1  0  0  0
 18 19  1  0  0  0
 23 24  1  0  0  0
 29 30  1  0  0  0
M  CHG 1  28  -1
M  END
> <minimizedAffinity>
-7.44610

> <CNNscore>
0.5536212325

> <CNNaffinity>
6.5430769920

> <CNN_VS>
3.6223864555

> <CNNaffinity_variance>
0.6109237075

$$$$
