


 37 36  0  0  0  0  0  0  0  0999 V2000
  -42.7837   57.2601   65.8782 O   0  0  0  0  0  0  0  0  0  0  0  0
  -42.7535   58.4172   65.5898 C   0  0  0  0  0  0  0  0  0  0  0  0
  -43.9596   59.2888   65.4599 C   0  0  0  0  0  0  0  0  0  0  0  0
  -45.2298   58.6158   65.9447 C   0  0  0  0  0  0  0  0  0  0  0  0
  -46.0533   58.0303   64.8181 C   0  0  0  0  0  0  0  0  0  0  0  0
  -47.5473   58.1435   65.0102 C   0  0  0  0  0  0  0  0  0  0  0  0
  -48.0628   59.5593   64.9665 C   0  0  0  0  0  0  0  0  0  0  0  0
  -49.5310   59.6260   64.6420 C   0  0  0  0  0  0  0  0  0  0  0  0
  -49.9237   60.6783   63.6478 C   0  0  0  0  0  0  0  0  0  0  0  0
  -49.4574   60.3936   62.2830 C   0  0  0  0  0  0  0  0  0  0  0  0
  -49.8628   59.4415   61.4720 C   0  0  0  0  0  0  0  0  0  0  0  0
  -50.9128   58.4202   61.7147 C   0  0  0  0  0  0  0  0  0  0  0  0
  -50.9465   57.2708   60.7282 C   0  0  0  0  0  0  0  0  0  0  0  0
  -49.7356   57.2341   59.8369 C   0  0  0  0  0  0  0  0  0  0  0  0
  -48.9501   55.9490   59.8950 C   0  0  0  0  0  0  0  0  0  0  0  0
  -47.6894   55.9998   59.0602 C   0  0  0  0  0  0  0  0  0  0  0  0
  -47.6402   57.1161   58.0546 C   0  0  0  0  0  0  0  0  0  0  0  0
  -47.5736   56.6391   56.6592 C   0  0  0  0  0  0  0  0  0  0  0  0
  -47.3170   55.2045   56.5480 C   0  0  0  0  0  0  0  0  0  0  0  0
  -41.6307   59.0891   65.3354 O   0  0  0  0  0  0  0  0  0  0  0  0
  -41.3442   60.2450   66.1539 C   0  0  0  0  0  0  0  0  0  0  0  0
  -40.3134   61.0671   65.4151 C   0  0  0  0  0  0  0  0  0  0  0  0
  -40.3362   62.4088   65.9025 O   0  0  0  0  0  0  0  0  0  0  0  0
  -40.0793   62.4174   66.8378 H   0  0  0  0  0  0  0  0  0  0  0  0
  -38.8981   60.5509   65.5088 C   0  0  0  0  0  0  0  0  0  0  0  0
  -38.0877   61.5493   66.1611 O   0  0  0  0  0  0  0  0  0  0  0  0
  -36.7050   61.9885   65.5095 P   0  0  0  0  0  0  0  0  0  0  0  0
  -37.0054   62.4891   64.1529 O   0  0  0  0  0  0  0  0  0  0  0  0
  -36.0424   62.8853   66.4769 O   0  0  0  0  0  0  0  0  0  0  0  0
  -36.5745   63.6884   66.5901 H   0  0  0  0  0  0  0  0  0  0  0  0
  -35.7933   60.6981   65.3656 O   0  0  0  0  0  0  0  0  0  0  0  0
  -35.0743   60.4618   64.1324 C   0  0  0  0  0  0  0  0  0  0  0  0
  -34.9387   58.9608   64.0133 C   0  0  0  0  0  0  0  0  0  0  0  0
  -36.0879   58.2363   63.3409 N   0  0  0  0  0  0  0  0  0  0  0  0
  -36.9607   57.5586   64.3479 C   0  0  0  0  0  0  0  0  0  0  0  0
  -35.5484   57.2034   62.4041 C   0  0  0  0  0  0  0  0  0  0  0  0
  -36.9168   59.2162   62.5714 C   0  0  0  0  0  0  0  0  0  0  0  0
 34 33  1  0  0  0
 34 35  1  0  0  0
 34 36  1  0  0  0
 34 37  1  0  0  0
 22 23  1  0  0  0
 22 25  1  0  0  0
 22 21  1  0  0  0
 27 26  1  0  0  0
 27 28  2  0  0  0
 27 31  1  0  0  0
 27 29  1  0  0  0
 25 26  1  0  0  0
 32 33  1  0  0  0
 32 31  1  0  0  0
 20 21  1  0  0  0
 20  2  1  0  0  0
  1  2  2  0  0  0
  2  3  1  0  0  0
  3  4  1  0  0  0
  4  5  1  0  0  0
  5  6  1  0  0  0
  6  7  1  0  0  0
  7  8  1  0  0  0
  8  9  1  0  0  0
  9 10  1  0  0  0
 10 11  2  0  0  0
 11 12  1  0  0  0
 12 13  1  0  0  0
 13 14  1  0  0  0
 14 15  1  0  0  0
 15 16  1  0  0  0
 16 17  1  0  0  0
 17 18  1  0  0  0
 18 19  1  0  0  0
 23 24  1  0  0  0
 29 30  1  0  0  0
M  CHG 1  28  -1
M  END
> <minimizedAffinity>
-8.11089

> <CNNscore>
0.8720408082

> <CNNaffinity>
7.0048074722

> <CNN_VS>
6.1084780693

> <CNNaffinity_variance>
0.4802875519

$$$$



 37 36  0  0  0  0  0  0  0  0999 V2000
  -41.9545   58.1234   65.7934 O   0  0  0  0  0  0  0  0  0  0  0  0
  -42.7529   58.9545   65.4852 C   0  0  0  0  0  0  0  0  0  0  0  0
  -43.9769   58.6912   64.6705 C   0  0  0  0  0  0  0  0  0  0  0  0
  -44.7967   57.5275   65.1951 C   0  0  0  0  0  0  0  0  0  0  0  0
  -45.9751   57.9687   66.0361 C   0  0  0  0  0  0  0  0  0  0  0  0
  -46.5036   59.3436   65.7010 C   0  0  0  0  0  0  0  0  0  0  0  0
  -47.6797   59.3323   64.7581 C   0  0  0  0  0  0  0  0  0  0  0  0
  -48.3991   58.0102   64.7536 C   0  0  0  0  0  0  0  0  0  0  0  0
  -49.8727   58.0780   65.0254 C   0  0  0  0  0  0  0  0  0  0  0  0
  -50.3777   59.4519   65.1609 C   0  0  0  0  0  0  0  0  0  0  0  0
  -50.9194   60.2097   64.2330 C   0  0  0  0  0  0  0  0  0  0  0  0
  -51.1828   59.8672   62.8125 C   0  0  0  0  0  0  0  0  0  0  0  0
  -50.0207   60.0776   61.8636 C   0  0  0  0  0  0  0  0  0  0  0  0
  -49.9192   58.9987   60.8206 C   0  0  0  0  0  0  0  0  0  0  0  0
  -49.5154   57.6468   61.3507 C   0  0  0  0  0  0  0  0  0  0  0  0
  -48.7585   56.8246   60.3310 C   0  0  0  0  0  0  0  0  0  0  0  0
  -48.8492   57.3287   58.9176 C   0  0  0  0  0  0  0  0  0  0  0  0
  -47.6960   56.9344   58.0846 C   0  0  0  0  0  0  0  0  0  0  0  0
  -48.0753   56.2000   56.8792 C   0  0  0  0  0  0  0  0  0  0  0  0
  -42.6533   60.2401   65.8230 O   0  0  0  0  0  0  0  0  0  0  0  0
  -41.5181   60.6334   66.6259 C   0  0  0  0  0  0  0  0  0  0  0  0
  -40.5164   61.2749   65.6934 C   0  0  0  0  0  0  0  0  0  0  0  0
  -40.3908   62.6612   66.0104 O   0  0  0  0  0  0  0  0  0  0  0  0
  -40.0351   62.7567   66.9077 H   0  0  0  0  0  0  0  0  0  0  0  0
  -39.1397   60.6562   65.7113 C   0  0  0  0  0  0  0  0  0  0  0  0
  -38.2342   61.5313   65.0092 O   0  0  0  0  0  0  0  0  0  0  0  0
  -36.7522   61.7286   65.5516 P   0  0  0  0  0  0  0  0  0  0  0  0
  -36.2869   63.0451   65.0704 O   0  0  0  0  0  0  0  0  0  0  0  0
  -36.7899   61.4657   67.0036 O   0  0  0  0  0  0  0  0  0  0  0  0
  -37.3458   62.1311   67.4384 H   0  0  0  0  0  0  0  0  0  0  0  0
  -35.8326   60.6139   64.8968 O   0  0  0  0  0  0  0  0  0  0  0  0
  -36.1216   60.1394   63.5608 C   0  0  0  0  0  0  0  0  0  0  0  0
  -36.4167   58.6633   63.7005 C   0  0  0  0  0  0  0  0  0  0  0  0
  -37.6416   58.1533   62.9675 N   0  0  0  0  0  0  0  0  0  0  0  0
  -38.6575   57.6168   63.9240 C   0  0  0  0  0  0  0  0  0  0  0  0
  -37.2437   57.0590   62.0297 C   0  0  0  0  0  0  0  0  0  0  0  0
  -38.2609   59.2707   62.1883 C   0  0  0  0  0  0  0  0  0  0  0  0
 34 33  1  0  0  0
 34 35  1  0  0  0
 34 36  1  0  0  0
 34 37  1  0  0  0
 22 23  1  0  0  0
 22 25  1  0  0  0
 22 21  1  0  0  0
 27 26  1  0  0  0
 27 28  2  0  0  0
 27 31  1  0  0  0
 27 29  1  0  0  0
 25 26  1  0  0  0
 32 33  1  0  0  0
 32 31  1  0  0  0
 20 21  1  0  0  0
 20  2  1  0  0  0
  1  2  2  0  0  0
  2  3  1  0  0  0
  3  4  1  0  0  0
  4  5  1  0  0  0
  5  6  1  0  0  0
  6  7  1  0  0  0
  7  8  1  0  0  0
  8  9  1  0  0  0
  9 10  1  0  0  0
 10 11  2  0  0  0
 11 12  1  0  0  0
 12 13  1  0  0  0
 13 14  1  0  0  0
 14 15  1  0  0  0
 15 16  1  0  0  0
 16 17  1  0  0  0
 17 18  1  0  0  0
 18 19  1  0  0  0
 23 24  1  0  0  0
 29 30  1  0  0  0
M  CHG 1  28  -1
M  END
> <minimizedAffinity>
-8.14387

> <CNNscore>
0.8042252064

> <CNNaffinity>
7.0332322121

> <CNN_VS>
5.6563024521

> <CNNaffinity_variance>
0.2555701137

$$$$



 37 36  0  0  0  0  0  0  0  0999 V2000
  -41.2366   60.1911   66.5746 O   0  0  0  0  0  0  0  0  0  0  0  0
  -41.6290   59.5864   65.6242 C   0  0  0  0  0  0  0  0  0  0  0  0
  -42.7533   58.6035   65.6516 C   0  0  0  0  0  0  0  0  0  0  0  0
  -43.8946   58.9854   64.7280 C   0  0  0  0  0  0  0  0  0  0  0  0
  -44.7912   57.8156   64.3842 C   0  0  0  0  0  0  0  0  0  0  0  0
  -45.2889   57.0361   65.5786 C   0  0  0  0  0  0  0  0  0  0  0  0
  -46.7808   57.1138   65.7795 C   0  0  0  0  0  0  0  0  0  0  0  0
  -47.4481   58.0208   64.7807 C   0  0  0  0  0  0  0  0  0  0  0  0
  -48.3628   59.0575   65.3627 C   0  0  0  0  0  0  0  0  0  0  0  0
  -48.2795   60.3571   64.6807 C   0  0  0  0  0  0  0  0  0  0  0  0
  -49.0636   60.8261   63.7353 C   0  0  0  0  0  0  0  0  0  0  0  0
  -50.2507   60.1748   63.1263 C   0  0  0  0  0  0  0  0  0  0  0  0
  -49.9863   59.3905   61.8573 C   0  0  0  0  0  0  0  0  0  0  0  0
  -50.2991   57.9266   62.0029 C   0  0  0  0  0  0  0  0  0  0  0  0
  -51.0245   57.3182   60.8301 C   0  0  0  0  0  0  0  0  0  0  0  0
  -50.2666   57.4785   59.5307 C   0  0  0  0  0  0  0  0  0  0  0  0
  -49.0648   56.5875   59.3844 C   0  0  0  0  0  0  0  0  0  0  0  0
  -48.1364   57.0324   58.3265 C   0  0  0  0  0  0  0  0  0  0  0  0
  -46.7983   56.4576   58.4493 C   0  0  0  0  0  0  0  0  0  0  0  0
  -41.1063   59.7028   64.4035 O   0  0  0  0  0  0  0  0  0  0  0  0
  -39.6675   59.7848   64.2983 C   0  0  0  0  0  0  0  0  0  0  0  0
  -39.3518   61.0220   63.4896 C   0  0  0  0  0  0  0  0  0  0  0  0
  -38.5997   61.9345   64.2895 O   0  0  0  0  0  0  0  0  0  0  0  0
  -37.7489   61.5326   64.5251 H   0  0  0  0  0  0  0  0  0  0  0  0
  -38.5906   60.7719   62.2103 C   0  0  0  0  0  0  0  0  0  0  0  0
  -37.5510   59.8088   62.4757 O   0  0  0  0  0  0  0  0  0  0  0  0
  -37.3598   58.5685   61.4987 P   0  0  0  0  0  0  0  0  0  0  0  0
  -37.9414   57.3913   62.1748 O   0  0  0  0  0  0  0  0  0  0  0  0
  -37.8884   58.9761   60.1821 O   0  0  0  0  0  0  0  0  0  0  0  0
  -38.8416   59.1412   60.2535 H   0  0  0  0  0  0  0  0  0  0  0  0
  -35.8041   58.3133   61.3209 O   0  0  0  0  0  0  0  0  0  0  0  0
  -35.1273   57.3748   62.1899 C   0  0  0  0  0  0  0  0  0  0  0  0
  -34.0622   58.1708   62.9092 C   0  0  0  0  0  0  0  0  0  0  0  0
  -34.3746   58.5687   64.3381 N   0  0  0  0  0  0  0  0  0  0  0  0
  -34.7297   60.0180   64.4287 C   0  0  0  0  0  0  0  0  0  0  0  0
  -33.1801   58.3147   65.2007 C   0  0  0  0  0  0  0  0  0  0  0  0
  -35.5288   57.7607   64.8425 C   0  0  0  0  0  0  0  0  0  0  0  0
 34 33  1  0  0  0
 34 35  1  0  0  0
 34 36  1  0  0  0
 34 37  1  0  0  0
 22 23  1  0  0  0
 22 25  1  0  0  0
 22 21  1  0  0  0
 27 26  1  0  0  0
 27 28  2  0  0  0
 27 31  1  0  0  0
 27 29  1  0  0  0
 25 26  1  0  0  0
 32 33  1  0  0  0
 32 31  1  0  0  0
 20 21  1  0  0  0
 20  2  1  0  0  0
  1  2  2  0  0  0
  2  3  1  0  0  0
  3  4  1  0  0  0
  4  5  1  0  0  0
  5  6  1  0  0  0
  6  7  1  0  0  0
  7  8  1  0  0  0
  8  9  1  0  0  0
  9 10  1  0  0  0
 10 11  2  0  0  0
 11 12  1  0  0  0
 12 13  1  0  0  0
 13 14  1  0  0  0
 14 15  1  0  0  0
 15 16  1  0  0  0
 16 17  1  0  0  0
 17 18  1  0  0  0
 18 19  1  0  0  0
 23 24  1  0  0  0
 29 30  1  0  0  0
M  CHG 1  28  -1
M  END
> <minimizedAffinity>
-7.96021

> <CNNscore>
0.7835860252

> <CNNaffinity>
6.7501220703

> <CNN_VS>
5.2893013954

> <CNNaffinity_variance>
0.5285971761

$$$$



 37 36  0  0  0  0  0  0  0  0999 V2000
  -40.9082   60.8003   65.6902 O   0  0  0  0  0  0  0  0  0  0  0  0
  -41.0701   59.6269   65.5490 C   0  0  0  0  0  0  0  0  0  0  0  0
  -42.3906   58.9364   65.6515 C   0  0  0  0  0  0  0  0  0  0  0  0
  -43.4926   59.6535   64.8947 C   0  0  0  0  0  0  0  0  0  0  0  0
  -44.7896   58.8742   64.8637 C   0  0  0  0  0  0  0  0  0  0  0  0
  -45.5232   58.8268   66.1834 C   0  0  0  0  0  0  0  0  0  0  0  0
  -46.8728   59.4977   66.1558 C   0  0  0  0  0  0  0  0  0  0  0  0
  -47.5564   59.3574   64.8222 C   0  0  0  0  0  0  0  0  0  0  0  0
  -48.6761   60.3228   64.5678 C   0  0  0  0  0  0  0  0  0  0  0  0
  -48.7924   60.7218   63.1577 C   0  0  0  0  0  0  0  0  0  0  0  0
  -49.6444   60.2789   62.2596 C   0  0  0  0  0  0  0  0  0  0  0  0
  -50.7252   59.2773   62.4413 C   0  0  0  0  0  0  0  0  0  0  0  0
  -50.3440   57.8427   62.1382 C   0  0  0  0  0  0  0  0  0  0  0  0
  -50.9859   57.3239   60.8808 C   0  0  0  0  0  0  0  0  0  0  0  0
  -50.1741   57.5312   59.6279 C   0  0  0  0  0  0  0  0  0  0  0  0
  -48.7250   57.1331   59.8013 C   0  0  0  0  0  0  0  0  0  0  0  0
  -48.3922   55.7395   59.3462 C   0  0  0  0  0  0  0  0  0  0  0  0
  -47.1922   55.6790   58.4886 C   0  0  0  0  0  0  0  0  0  0  0  0
  -47.1013   56.7863   57.5389 C   0  0  0  0  0  0  0  0  0  0  0  0
  -40.0845   58.7685   65.2870 O   0  0  0  0  0  0  0  0  0  0  0  0
  -39.3027   58.9939   64.0928 C   0  0  0  0  0  0  0  0  0  0  0  0
  -37.8596   58.7208   64.4496 C   0  0  0  0  0  0  0  0  0  0  0  0
  -37.0366   58.9376   63.3034 O   0  0  0  0  0  0  0  0  0  0  0  0
  -37.0859   59.8704   63.0417 H   0  0  0  0  0  0  0  0  0  0  0  0
  -37.3157   59.5481   65.5890 C   0  0  0  0  0  0  0  0  0  0  0  0
  -36.4872   60.5938   65.0422 O   0  0  0  0  0  0  0  0  0  0  0  0
  -37.1380   61.9935   64.6591 P   0  0  0  0  0  0  0  0  0  0  0  0
  -37.3037   62.0066   63.1917 O   0  0  0  0  0  0  0  0  0  0  0  0
  -38.3262   62.1619   65.5187 O   0  0  0  0  0  0  0  0  0  0  0  0
  -38.9778   61.4749   65.3080 H   0  0  0  0  0  0  0  0  0  0  0  0
  -36.1120   63.1396   65.0473 O   0  0  0  0  0  0  0  0  0  0  0  0
  -34.7211   62.8108   65.2730 C   0  0  0  0  0  0  0  0  0  0  0  0
  -34.0568   64.0975   65.7075 C   0  0  0  0  0  0  0  0  0  0  0  0
  -33.1266   64.7439   64.7001 N   0  0  0  0  0  0  0  0  0  0  0  0
  -33.8968   65.4215   63.6127 C   0  0  0  0  0  0  0  0  0  0  0  0
  -32.2510   63.6992   64.0857 C   0  0  0  0  0  0  0  0  0  0  0  0
  -32.2725   65.7622   65.3877 C   0  0  0  0  0  0  0  0  0  0  0  0
 34 33  1  0  0  0
 34 35  1  0  0  0
 34 36  1  0  0  0
 34 37  1  0  0  0
 22 23  1  0  0  0
 22 25  1  0  0  0
 22 21  1  0  0  0
 27 26  1  0  0  0
 27 28  2  0  0  0
 27 31  1  0  0  0
 27 29  1  0  0  0
 25 26  1  0  0  0
 32 33  1  0  0  0
 32 31  1  0  0  0
 20 21  1  0  0  0
 20  2  1  0  0  0
  1  2  2  0  0  0
  2  3  1  0  0  0
  3  4  1  0  0  0
  4  5  1  0  0  0
  5  6  1  0  0  0
  6  7  1  0  0  0
  7  8  1  0  0  0
  8  9  1  0  0  0
  9 10  1  0  0  0
 10 11  2  0  0  0
 11 12  1  0  0  0
 12 13  1  0  0  0
 13 14  1  0  0  0
 14 15  1  0  0  0
 15 16  1  0  0  0
 16 17  1  0  0  0
 17 18  1  0  0  0
 18 19  1  0  0  0
 23 24  1  0  0  0
 29 30  1  0  0  0
M  CHG 1  28  -1
M  END
> <minimizedAffinity>
-7.75426

> <CNNscore>
0.7441965938

> <CNNaffinity>
6.3377084732

> <CNN_VS>
4.7165012360

> <CNNaffinity_variance>
0.3411974609

$$$$



 37 36  0  0  0  0  0  0  0  0999 V2000
  -43.6923   59.9623   64.8022 O   0  0  0  0  0  0  0  0  0  0  0  0
  -42.9606   59.0747   65.1179 C   0  0  0  0  0  0  0  0  0  0  0  0
  -43.4122   57.7566   65.6561 C   0  0  0  0  0  0  0  0  0  0  0  0
  -44.7048   57.2728   65.0263 C   0  0  0  0  0  0  0  0  0  0  0  0
  -45.8558   57.2231   66.0077 C   0  0  0  0  0  0  0  0  0  0  0  0
  -46.6069   58.5250   66.1582 C   0  0  0  0  0  0  0  0  0  0  0  0
  -47.5168   58.8422   64.9990 C   0  0  0  0  0  0  0  0  0  0  0  0
  -48.4422   57.7025   64.6670 C   0  0  0  0  0  0  0  0  0  0  0  0
  -49.8718   57.8926   65.0797 C   0  0  0  0  0  0  0  0  0  0  0  0
  -50.2343   59.3012   65.2933 C   0  0  0  0  0  0  0  0  0  0  0  0
  -50.7796   60.1350   64.4355 C   0  0  0  0  0  0  0  0  0  0  0  0
  -51.1921   59.8650   63.0350 C   0  0  0  0  0  0  0  0  0  0  0  0
  -50.2754   60.4222   61.9651 C   0  0  0  0  0  0  0  0  0  0  0  0
  -49.7081   59.3537   61.0716 C   0  0  0  0  0  0  0  0  0  0  0  0
  -50.4168   58.0258   61.1499 C   0  0  0  0  0  0  0  0  0  0  0  0
  -50.1519   57.1530   59.9430 C   0  0  0  0  0  0  0  0  0  0  0  0
  -49.2096   56.0069   60.1848 C   0  0  0  0  0  0  0  0  0  0  0  0
  -48.1234   55.9271   59.1883 C   0  0  0  0  0  0  0  0  0  0  0  0
  -48.1946   56.9707   58.1676 C   0  0  0  0  0  0  0  0  0  0  0  0
  -41.6318   59.1453   65.0392 O   0  0  0  0  0  0  0  0  0  0  0  0
  -40.9559   60.0427   65.9480 C   0  0  0  0  0  0  0  0  0  0  0  0
  -40.3368   61.1383   65.1108 C   0  0  0  0  0  0  0  0  0  0  0  0
  -40.0348   62.2592   65.9416 O   0  0  0  0  0  0  0  0  0  0  0  0
  -39.3698   62.0039   66.6000 H   0  0  0  0  0  0  0  0  0  0  0  0
  -39.0824   60.7440   64.3694 C   0  0  0  0  0  0  0  0  0  0  0  0
  -38.1656   61.8566   64.3947 O   0  0  0  0  0  0  0  0  0  0  0  0
  -36.7840   61.7196   65.1704 P   0  0  0  0  0  0  0  0  0  0  0  0
  -37.0928   61.1919   66.5147 O   0  0  0  0  0  0  0  0  0  0  0  0
  -35.8737   60.9598   64.2911 O   0  0  0  0  0  0  0  0  0  0  0  0
  -36.2212   60.0634   64.1630 H   0  0  0  0  0  0  0  0  0  0  0  0
  -36.1667   63.1709   65.3428 O   0  0  0  0  0  0  0  0  0  0  0  0
  -35.3876   63.7510   64.2704 C   0  0  0  0  0  0  0  0  0  0  0  0
  -34.4503   64.7387   64.9271 C   0  0  0  0  0  0  0  0  0  0  0  0
  -33.1985   65.0926   64.1488 N   0  0  0  0  0  0  0  0  0  0  0  0
  -32.4740   63.8626   63.7051 C   0  0  0  0  0  0  0  0  0  0  0  0
  -32.2840   65.9003   65.0129 C   0  0  0  0  0  0  0  0  0  0  0  0
  -33.5694   65.8921   62.9394 C   0  0  0  0  0  0  0  0  0  0  0  0
 34 33  1  0  0  0
 34 35  1  0  0  0
 34 36  1  0  0  0
 34 37  1  0  0  0
 22 23  1  0  0  0
 22 25  1  0  0  0
 22 21  1  0  0  0
 27 26  1  0  0  0
 27 28  2  0  0  0
 27 31  1  0  0  0
 27 29  1  0  0  0
 25 26  1  0  0  0
 32 33  1  0  0  0
 32 31  1  0  0  0
 20 21  1  0  0  0
 20  2  1  0  0  0
  1  2  2  0  0  0
  2  3  1  0  0  0
  3  4  1  0  0  0
  4  5  1  0  0  0
  5  6  1  0  0  0
  6  7  1  0  0  0
  7  8  1  0  0  0
  8  9  1  0  0  0
  9 10  1  0  0  0
 10 11  2  0  0  0
 11 12  1  0  0  0
 12 13  1  0  0  0
 13 14  1  0  0  0
 14 15  1  0  0  0
 15 16  1  0  0  0
 16 17  1  0  0  0
 17 18  1  0  0  0
 18 19  1  0  0  0
 23 24  1  0  0  0
 29 30  1  0  0  0
M  CHG 1  28  -1
M  END
> <minimizedAffinity>
-8.13423

> <CNNscore>
0.7301019430

> <CNNaffinity>
6.3113336563

> <CNN_VS>
4.6079168320

> <CNNaffinity_variance>
0.2044280469

$$$$



 37 36  0  0  0  0  0  0  0  0999 V2000
  -42.5819   60.4714   67.0979 O   0  0  0  0  0  0  0  0  0  0  0  0
  -42.5755   60.0432   65.9845 C   0  0  0  0  0  0  0  0  0  0  0  0
  -43.8000   59.7968   65.1654 C   0  0  0  0  0  0  0  0  0  0  0  0
  -44.4972   58.4973   65.5212 C   0  0  0  0  0  0  0  0  0  0  0  0
  -45.8471   58.7116   66.1712 C   0  0  0  0  0  0  0  0  0  0  0  0
  -46.7126   59.7457   65.4906 C   0  0  0  0  0  0  0  0  0  0  0  0
  -47.7154   59.1638   64.5271 C   0  0  0  0  0  0  0  0  0  0  0  0
  -48.4622   57.9953   65.1121 C   0  0  0  0  0  0  0  0  0  0  0  0
  -49.9579   58.1019   65.0725 C   0  0  0  0  0  0  0  0  0  0  0  0
  -50.4480   59.4801   65.2196 C   0  0  0  0  0  0  0  0  0  0  0  0
  -51.0142   60.2388   64.3072 C   0  0  0  0  0  0  0  0  0  0  0  0
  -51.3267   59.8935   62.8974 C   0  0  0  0  0  0  0  0  0  0  0  0
  -50.2167   60.1540   61.8997 C   0  0  0  0  0  0  0  0  0  0  0  0
  -49.6704   58.8901   61.2946 C   0  0  0  0  0  0  0  0  0  0  0  0
  -50.6717   57.7711   61.1636 C   0  0  0  0  0  0  0  0  0  0  0  0
  -50.1874   56.6605   60.2576 C   0  0  0  0  0  0  0  0  0  0  0  0
  -49.1180   57.0615   59.2801 C   0  0  0  0  0  0  0  0  0  0  0  0
  -47.9629   56.1424   59.2727 C   0  0  0  0  0  0  0  0  0  0  0  0
  -47.4561   55.8582   57.9315 C   0  0  0  0  0  0  0  0  0  0  0  0
  -41.4659   59.7175   65.3215 O   0  0  0  0  0  0  0  0  0  0  0  0
  -40.9719   60.6592   64.3432 C   0  0  0  0  0  0  0  0  0  0  0  0
  -39.8405   61.4217   64.9936 C   0  0  0  0  0  0  0  0  0  0  0  0
  -40.3753   62.3795   65.9072 O   0  0  0  0  0  0  0  0  0  0  0  0
  -40.8453   61.9191   66.6200 H   0  0  0  0  0  0  0  0  0  0  0  0
  -38.8368   60.5693   65.7314 C   0  0  0  0  0  0  0  0  0  0  0  0
  -37.6220   60.5166   64.9567 O   0  0  0  0  0  0  0  0  0  0  0  0
  -36.6704   61.7896   64.8988 P   0  0  0  0  0  0  0  0  0  0  0  0
  -36.8516   62.4052   63.5686 O   0  0  0  0  0  0  0  0  0  0  0  0
  -36.9531   62.5899   66.1064 O   0  0  0  0  0  0  0  0  0  0  0  0
  -37.8672   62.9129   66.0736 H   0  0  0  0  0  0  0  0  0  0  0  0
  -35.1683   61.2906   65.0079 O   0  0  0  0  0  0  0  0  0  0  0  0
  -34.1270   61.9861   64.2829 C   0  0  0  0  0  0  0  0  0  0  0  0
  -33.5905   63.0334   65.2320 C   0  0  0  0  0  0  0  0  0  0  0  0
  -33.2694   64.3849   64.6253 N   0  0  0  0  0  0  0  0  0  0  0  0
  -32.8091   65.3493   65.6707 C   0  0  0  0  0  0  0  0  0  0  0  0
  -34.4915   64.9408   63.9674 C   0  0  0  0  0  0  0  0  0  0  0  0
  -32.1856   64.2316   63.6049 C   0  0  0  0  0  0  0  0  0  0  0  0
 34 33  1  0  0  0
 34 35  1  0  0  0
 34 36  1  0  0  0
 34 37  1  0  0  0
 22 23  1  0  0  0
 22 25  1  0  0  0
 22 21  1  0  0  0
 27 26  1  0  0  0
 27 28  2  0  0  0
 27 31  1  0  0  0
 27 29  1  0  0  0
 25 26  1  0  0  0
 32 33  1  0  0  0
 32 31  1  0  0  0
 20 21  1  0  0  0
 20  2  1  0  0  0
  1  2  2  0  0  0
  2  3  1  0  0  0
  3  4  1  0  0  0
  4  5  1  0  0  0
  5  6  1  0  0  0
  6  7  1  0  0  0
  7  8  1  0  0  0
  8  9  1  0  0  0
  9 10  1  0  0  0
 10 11  2  0  0  0
 11 12  1  0  0  0
 12 13  1  0  0  0
 13 14  1  0  0  0
 14 15  1  0  0  0
 15 16  1  0  0  0
 16 17  1  0  0  0
 17 18  1  0  0  0
 18 19  1  0  0  0
 23 24  1  0  0  0
 29 30  1  0  0  0
M  CHG 1  28  -1
M  END
> <minimizedAffinity>
-8.06412

> <CNNscore>
0.7019976974

> <CNNaffinity>
6.2832612991

> <CNN_VS>
4.4108347893

> <CNNaffinity_variance>
0.2355909050

$$$$



 37 36  0  0  0  0  0  0  0  0999 V2000
  -44.2123   59.7889   66.2391 O   0  0  0  0  0  0  0  0  0  0  0  0
  -43.9712   59.2233   65.2169 C   0  0  0  0  0  0  0  0  0  0  0  0
  -44.5921   57.9311   64.7978 C   0  0  0  0  0  0  0  0  0  0  0  0
  -45.4048   57.2807   65.9014 C   0  0  0  0  0  0  0  0  0  0  0  0
  -46.8175   56.9461   65.4739 C   0  0  0  0  0  0  0  0  0  0  0  0
  -47.5294   58.0578   64.7396 C   0  0  0  0  0  0  0  0  0  0  0  0
  -48.0288   59.1606   65.6377 C   0  0  0  0  0  0  0  0  0  0  0  0
  -47.8041   60.5271   65.0481 C   0  0  0  0  0  0  0  0  0  0  0  0
  -48.7128   60.8960   63.9130 C   0  0  0  0  0  0  0  0  0  0  0  0
  -50.1289   60.6080   64.1829 C   0  0  0  0  0  0  0  0  0  0  0  0
  -50.9903   59.9879   63.4069 C   0  0  0  0  0  0  0  0  0  0  0  0
  -50.7513   59.3971   62.0659 C   0  0  0  0  0  0  0  0  0  0  0  0
  -50.3215   57.9443   62.0594 C   0  0  0  0  0  0  0  0  0  0  0  0
  -50.8900   57.1751   60.8987 C   0  0  0  0  0  0  0  0  0  0  0  0
  -50.4276   57.6468   59.5439 C   0  0  0  0  0  0  0  0  0  0  0  0
  -48.9613   57.3659   59.2995 C   0  0  0  0  0  0  0  0  0  0  0  0
  -48.5553   55.9283   59.4677 C   0  0  0  0  0  0  0  0  0  0  0  0
  -47.1981   55.6444   58.9612 C   0  0  0  0  0  0  0  0  0  0  0  0
  -46.9445   56.2049   57.6354 C   0  0  0  0  0  0  0  0  0  0  0  0
  -43.1024   59.6693   64.3096 O   0  0  0  0  0  0  0  0  0  0  0  0
  -41.7658   59.9810   64.7617 C   0  0  0  0  0  0  0  0  0  0  0  0
  -41.3444   61.2503   64.0577 C   0  0  0  0  0  0  0  0  0  0  0  0
  -40.5146   62.0228   64.9254 O   0  0  0  0  0  0  0  0  0  0  0  0
  -39.7019   61.5300   65.1189 H   0  0  0  0  0  0  0  0  0  0  0  0
  -40.6094   61.0446   62.7554 C   0  0  0  0  0  0  0  0  0  0  0  0
  -39.5316   60.1134   62.9789 O   0  0  0  0  0  0  0  0  0  0  0  0
  -38.0973   60.4069   62.3576 P   0  0  0  0  0  0  0  0  0  0  0  0
  -37.1972   59.3309   62.8194 O   0  0  0  0  0  0  0  0  0  0  0  0
  -38.2924   60.6090   60.9085 O   0  0  0  0  0  0  0  0  0  0  0  0
  -38.6161   59.7870   60.5080 H   0  0  0  0  0  0  0  0  0  0  0  0
  -37.5696   61.7783   62.9556 O   0  0  0  0  0  0  0  0  0  0  0  0
  -37.0073   61.8106   64.2885 C   0  0  0  0  0  0  0  0  0  0  0  0
  -35.8373   62.7656   64.2213 C   0  0  0  0  0  0  0  0  0  0  0  0
  -34.5091   62.2331   64.7211 N   0  0  0  0  0  0  0  0  0  0  0  0
  -34.3442   62.4848   66.1855 C   0  0  0  0  0  0  0  0  0  0  0  0
  -33.3927   62.9089   63.9915 C   0  0  0  0  0  0  0  0  0  0  0  0
  -34.4367   60.7583   64.4779 C   0  0  0  0  0  0  0  0  0  0  0  0
 34 33  1  0  0  0
 34 35  1  0  0  0
 34 36  1  0  0  0
 34 37  1  0  0  0
 22 23  1  0  0  0
 22 25  1  0  0  0
 22 21  1  0  0  0
 27 26  1  0  0  0
 27 28  2  0  0  0
 27 31  1  0  0  0
 27 29  1  0  0  0
 25 26  1  0  0  0
 32 33  1  0  0  0
 32 31  1  0  0  0
 20 21  1  0  0  0
 20  2  1  0  0  0
  1  2  2  0  0  0
  2  3  1  0  0  0
  3  4  1  0  0  0
  4  5  1  0  0  0
  5  6  1  0  0  0
  6  7  1  0  0  0
  7  8  1  0  0  0
  8  9  1  0  0  0
  9 10  1  0  0  0
 10 11  2  0  0  0
 11 12  1  0  0  0
 12 13  1  0  0  0
 13 14  1  0  0  0
 14 15  1  0  0  0
 15 16  1  0  0  0
 16 17  1  0  0  0
 17 18  1  0  0  0
 18 19  1  0  0  0
 23 24  1  0  0  0
 29 30  1  0  0  0
M  CHG 1  28  -1
M  END
> <minimizedAffinity>
-7.99837

> <CNNscore>
0.6928311586

> <CNNaffinity>
6.4907865524

> <CNN_VS>
4.4970192909

> <CNNaffinity_variance>
0.2518215775

$$$$



 37 36  0  0  0  0  0  0  0  0999 V2000
  -41.9603   58.5869   65.7975 O   0  0  0  0  0  0  0  0  0  0  0  0
  -42.7702   59.2441   65.2188 C   0  0  0  0  0  0  0  0  0  0  0  0
  -44.0522   58.7132   64.6658 C   0  0  0  0  0  0  0  0  0  0  0  0
  -44.5068   57.4371   65.3488 C   0  0  0  0  0  0  0  0  0  0  0  0
  -45.8930   57.5498   65.9456 C   0  0  0  0  0  0  0  0  0  0  0  0
  -46.3685   58.9673   66.1613 C   0  0  0  0  0  0  0  0  0  0  0  0
  -47.5283   59.3622   65.2832 C   0  0  0  0  0  0  0  0  0  0  0  0
  -48.2556   58.1698   64.7221 C   0  0  0  0  0  0  0  0  0  0  0  0
  -49.7179   58.0953   65.0482 C   0  0  0  0  0  0  0  0  0  0  0  0
  -50.3355   59.4124   65.2602 C   0  0  0  0  0  0  0  0  0  0  0  0
  -50.9154   60.1865   64.3697 C   0  0  0  0  0  0  0  0  0  0  0  0
  -51.1175   59.9222   62.9227 C   0  0  0  0  0  0  0  0  0  0  0  0
  -49.9221   60.2010   62.0346 C   0  0  0  0  0  0  0  0  0  0  0  0
  -49.8163   59.2389   60.8834 C   0  0  0  0  0  0  0  0  0  0  0  0
  -49.5462   57.8100   61.2800 C   0  0  0  0  0  0  0  0  0  0  0  0
  -50.0173   56.8185   60.2390 C   0  0  0  0  0  0  0  0  0  0  0  0
  -48.9963   55.7920   59.8343 C   0  0  0  0  0  0  0  0  0  0  0  0
  -47.7694   56.3847   59.2663 C   0  0  0  0  0  0  0  0  0  0  0  0
  -47.8924   56.7282   57.8510 C   0  0  0  0  0  0  0  0  0  0  0  0
  -42.6336   60.5484   64.9799 O   0  0  0  0  0  0  0  0  0  0  0  0
  -41.9565   60.9371   63.7640 C   0  0  0  0  0  0  0  0  0  0  0  0
  -40.6857   61.6466   64.1716 C   0  0  0  0  0  0  0  0  0  0  0  0
  -40.8286   62.1545   65.4981 O   0  0  0  0  0  0  0  0  0  0  0  0
  -40.9444   61.4160   66.1164 H   0  0  0  0  0  0  0  0  0  0  0  0
  -39.4366   60.8008   64.1180 C   0  0  0  0  0  0  0  0  0  0  0  0
  -39.5202   59.9310   62.9712 O   0  0  0  0  0  0  0  0  0  0  0  0
  -38.7923   60.3415   61.6180 P   0  0  0  0  0  0  0  0  0  0  0  0
  -39.8493   60.6712   60.6407 O   0  0  0  0  0  0  0  0  0  0  0  0
  -37.7894   61.3672   61.9663 O   0  0  0  0  0  0  0  0  0  0  0  0
  -38.2392   62.1584   62.3020 H   0  0  0  0  0  0  0  0  0  0  0  0
  -38.0015   59.0768   61.0776 O   0  0  0  0  0  0  0  0  0  0  0  0
  -37.6948   57.9849   61.9760 C   0  0  0  0  0  0  0  0  0  0  0  0
  -36.2912   58.2415   62.4755 C   0  0  0  0  0  0  0  0  0  0  0  0
  -36.1184   58.3109   63.9799 N   0  0  0  0  0  0  0  0  0  0  0  0
  -35.9441   59.7232   64.4378 C   0  0  0  0  0  0  0  0  0  0  0  0
  -34.9108   57.5260   64.3814 C   0  0  0  0  0  0  0  0  0  0  0  0
  -37.3264   57.7359   64.6503 C   0  0  0  0  0  0  0  0  0  0  0  0
 34 33  1  0  0  0
 34 35  1  0  0  0
 34 36  1  0  0  0
 34 37  1  0  0  0
 22 23  1  0  0  0
 22 25  1  0  0  0
 22 21  1  0  0  0
 27 26  1  0  0  0
 27 28  2  0  0  0
 27 31  1  0  0  0
 27 29  1  0  0  0
 25 26  1  0  0  0
 32 33  1  0  0  0
 32 31  1  0  0  0
 20 21  1  0  0  0
 20  2  1  0  0  0
  1  2  2  0  0  0
  2  3  1  0  0  0
  3  4  1  0  0  0
  4  5  1  0  0  0
  5  6  1  0  0  0
  6  7  1  0  0  0
  7  8  1  0  0  0
  8  9  1  0  0  0
  9 10  1  0  0  0
 10 11  2  0  0  0
 11 12  1  0  0  0
 12 13  1  0  0  0
 13 14  1  0  0  0
 14 15  1  0  0  0
 15 16  1  0  0  0
 16 17  1  0  0  0
 17 18  1  0  0  0
 18 19  1  0  0  0
 23 24  1  0  0  0
 29 30  1  0  0  0
M  CHG 1  28  -1
M  END
> <minimizedAffinity>
-8.24910

> <CNNscore>
0.6912647486

> <CNNaffinity>
6.8086752892

> <CNN_VS>
4.7065973282

> <CNNaffinity_variance>
0.4128576219

$$$$



 37 36  0  0  0  0  0  0  0  0999 V2000
  -43.8314   60.2732   64.7308 O   0  0  0  0  0  0  0  0  0  0  0  0
  -43.2358   59.5474   65.4666 C   0  0  0  0  0  0  0  0  0  0  0  0
  -43.5517   58.1014   65.6679 C   0  0  0  0  0  0  0  0  0  0  0  0
  -44.6407   57.5996   64.7385 C   0  0  0  0  0  0  0  0  0  0  0  0
  -45.9923   57.5033   65.4125 C   0  0  0  0  0  0  0  0  0  0  0  0
  -47.0850   58.3016   64.7414 C   0  0  0  0  0  0  0  0  0  0  0  0
  -47.1810   59.7277   65.2204 C   0  0  0  0  0  0  0  0  0  0  0  0
  -48.4856   60.3745   64.8397 C   0  0  0  0  0  0  0  0  0  0  0  0
  -49.7104   59.5409   65.0745 C   0  0  0  0  0  0  0  0  0  0  0  0
  -50.9132   60.0746   64.4191 C   0  0  0  0  0  0  0  0  0  0  0  0
  -51.2424   60.0000   63.1484 C   0  0  0  0  0  0  0  0  0  0  0  0
  -50.4964   59.3376   62.0488 C   0  0  0  0  0  0  0  0  0  0  0  0
  -50.6400   57.8311   61.9768 C   0  0  0  0  0  0  0  0  0  0  0  0
  -50.8421   57.3329   60.5722 C   0  0  0  0  0  0  0  0  0  0  0  0
  -49.8475   57.8579   59.5688 C   0  0  0  0  0  0  0  0  0  0  0  0
  -49.1465   56.7519   58.8113 C   0  0  0  0  0  0  0  0  0  0  0  0
  -47.7903   56.3809   59.3432 C   0  0  0  0  0  0  0  0  0  0  0  0
  -46.7749   56.2185   58.2841 C   0  0  0  0  0  0  0  0  0  0  0  0
  -46.9168   57.1793   57.1919 C   0  0  0  0  0  0  0  0  0  0  0  0
  -42.2063   59.9359   66.2189 O   0  0  0  0  0  0  0  0  0  0  0  0
  -40.8807   59.7920   65.6621 C   0  0  0  0  0  0  0  0  0  0  0  0
  -40.5391   61.1002   64.9865 C   0  0  0  0  0  0  0  0  0  0  0  0
  -40.3002   62.0996   65.9775 O   0  0  0  0  0  0  0  0  0  0  0  0
  -39.5267   61.8509   66.5076 H   0  0  0  0  0  0  0  0  0  0  0  0
  -39.3455   61.0501   64.0639 C   0  0  0  0  0  0  0  0  0  0  0  0
  -38.4842   59.9735   64.4859 O   0  0  0  0  0  0  0  0  0  0  0  0
  -37.1315   60.3036   65.2544 P   0  0  0  0  0  0  0  0  0  0  0  0
  -37.5043   60.9490   66.5294 O   0  0  0  0  0  0  0  0  0  0  0  0
  -36.3412   59.0572   65.2831 O   0  0  0  0  0  0  0  0  0  0  0  0
  -36.8116   58.3880   65.8045 H   0  0  0  0  0  0  0  0  0  0  0  0
  -36.3160   61.3562   64.3917 O   0  0  0  0  0  0  0  0  0  0  0  0
  -36.0274   62.6635   64.9407 C   0  0  0  0  0  0  0  0  0  0  0  0
  -35.6056   63.5206   63.7689 C   0  0  0  0  0  0  0  0  0  0  0  0
  -34.2355   64.1617   63.8675 N   0  0  0  0  0  0  0  0  0  0  0  0
  -33.9491   65.0083   62.6691 C   0  0  0  0  0  0  0  0  0  0  0  0
  -33.1904   63.0966   63.9608 C   0  0  0  0  0  0  0  0  0  0  0  0
  -34.1723   65.0240   65.0888 C   0  0  0  0  0  0  0  0  0  0  0  0
 34 33  1  0  0  0
 34 35  1  0  0  0
 34 36  1  0  0  0
 34 37  1  0  0  0
 22 23  1  0  0  0
 22 25  1  0  0  0
 22 21  1  0  0  0
 27 26  1  0  0  0
 27 28  2  0  0  0
 27 31  1  0  0  0
 27 29  1  0  0  0
 25 26  1  0  0  0
 32 33  1  0  0  0
 32 31  1  0  0  0
 20 21  1  0  0  0
 20  2  1  0  0  0
  1  2  2  0  0  0
  2  3  1  0  0  0
  3  4  1  0  0  0
  4  5  1  0  0  0
  5  6  1  0  0  0
  6  7  1  0  0  0
  7  8  1  0  0  0
  8  9  1  0  0  0
  9 10  1  0  0  0
 10 11  2  0  0  0
 11 12  1  0  0  0
 12 13  1  0  0  0
 13 14  1  0  0  0
 14 15  1  0  0  0
 15 16  1  0  0  0
 16 17  1  0  0  0
 17 18  1  0  0  0
 18 19  1  0  0  0
 23 24  1  0  0  0
 29 30  1  0  0  0
M  CHG 1  28  -1
M  END
> <minimizedAffinity>
-8.03346

> <CNNscore>
0.6822670102

> <CNNaffinity>
6.3433761597

> <CNN_VS>
4.3278760910

> <CNNaffinity_variance>
0.3989896178

$$$$
