


 56 55  0  0  0  0  0  0  0  0999 V2000
  -37.6642   60.1533   65.0035 C   0  0  0  0  0  0  0  0  0  0  0  0
  -37.1008   59.0543   64.1477 C   0  0  0  0  0  0  0  0  0  0  0  0
  -37.5819   59.3623   62.8223 O   0  0  0  0  0  0  0  0  0  0  0  0
  -38.9739   57.6395   62.5165 O   0  0  0  0  0  0  0  0  0  0  0  0
  -38.7435   58.8173   62.4595 C   0  0  0  0  0  0  0  0  0  0  0  0
  -39.7482   59.8727   62.0969 C   0  0  0  0  0  0  0  0  0  0  0  0
  -39.9682   60.0326   60.6021 C   0  0  0  0  0  0  0  0  0  0  0  0
  -38.6718   60.1020   59.8229 C   0  0  0  0  0  0  0  0  0  0  0  0
  -38.4544   58.9420   58.8778 C   0  0  0  0  0  0  0  0  0  0  0  0
  -37.0659   58.3443   58.9817 C   0  0  0  0  0  0  0  0  0  0  0  0
  -36.6813   57.5224   57.7758 C   0  0  0  0  0  0  0  0  0  0  0  0
  -36.6164   56.0463   58.0661 C   0  0  0  0  0  0  0  0  0  0  0  0
  -36.4033   55.7312   59.5301 C   0  0  0  0  0  0  0  0  0  0  0  0
  -35.0442   55.1202   59.8055 C   0  0  0  0  0  0  0  0  0  0  0  0
  -33.9249   56.1327   59.9283 C   0  0  0  0  0  0  0  0  0  0  0  0
  -33.5022   56.4124   61.3660 C   0  0  0  0  0  0  0  0  0  0  0  0
  -33.9787   57.7499   61.8992 C   0  0  0  0  0  0  0  0  0  0  0  0
  -32.9052   58.5189   62.6418 C   0  0  0  0  0  0  0  0  0  0  0  0
  -31.9285   59.2427   61.7254 C   0  0  0  0  0  0  0  0  0  0  0  0
  -30.9152   60.0947   62.4687 C   0  0  0  0  0  0  0  0  0  0  0  0
  -28.4766   60.6177   62.1290 C   0  0  0  0  0  0  0  0  0  0  0  0
  -29.8797   60.7648   61.5856 C   0  0  0  0  0  0  0  0  0  0  0  0
  -36.5818   60.9693   65.6623 C   0  0  0  0  0  0  0  0  0  0  0  0
  -36.9070   62.3707   65.5250 O   0  0  0  0  0  0  0  0  0  0  0  0
  -36.2168   63.3185   64.4354 P   0  0  0  0  0  0  0  0  0  0  0  0
  -36.5219   62.7732   63.0951 O   0  0  0  0  0  0  0  0  0  0  0  0
  -36.5949   64.7201   64.7371 O   0  0  0  0  0  0  0  0  0  0  0  0
  -37.5475   64.8357   64.5953 H   0  0  0  0  0  0  0  0  0  0  0  0
  -34.6480   63.1708   64.6801 O   0  0  0  0  0  0  0  0  0  0  0  0
  -33.7318   64.1033   64.0709 C   0  0  0  0  0  0  0  0  0  0  0  0
  -33.8940   63.5518   61.7445 O   0  0  0  0  0  0  0  0  0  0  0  0
  -33.0644   63.4201   62.9027 C   0  0  0  0  0  0  0  0  0  0  0  0
  -34.7749   63.1935   61.9354 H   0  0  0  0  0  0  0  0  0  0  0  0
  -31.1906   64.6784   63.7534 O   0  0  0  0  0  0  0  0  0  0  0  0
  -31.6876   63.9734   62.6231 C   0  0  0  0  0  0  0  0  0  0  0  0
  -30.3069   65.0258   63.5549 H   0  0  0  0  0  0  0  0  0  0  0  0
  -38.5666   59.5527   65.9909 O   0  0  0  0  0  0  0  0  0  0  0  0
  -40.3066   60.9736   66.1081 O   0  0  0  0  0  0  0  0  0  0  0  0
  -39.8715   59.8739   65.9005 C   0  0  0  0  0  0  0  0  0  0  0  0
  -40.7101   58.7023   65.4929 C   0  0  0  0  0  0  0  0  0  0  0  0
  -42.0785   59.1445   64.9842 C   0  0  0  0  0  0  0  0  0  0  0  0
  -43.2234   58.8118   65.9267 C   0  0  0  0  0  0  0  0  0  0  0  0
  -44.5971   59.1576   65.3633 C   0  0  0  0  0  0  0  0  0  0  0  0
  -45.2771   58.0065   64.6457 C   0  0  0  0  0  0  0  0  0  0  0  0
  -46.6207   57.5855   65.2479 C   0  0  0  0  0  0  0  0  0  0  0  0
  -47.8399   58.3384   64.7110 C   0  0  0  0  0  0  0  0  0  0  0  0
  -49.1055   57.9312   65.4041 C   0  0  0  0  0  0  0  0  0  0  0  0
  -50.3237   58.3585   65.1340 C   0  0  0  0  0  0  0  0  0  0  0  0
  -50.6983   59.3435   64.0720 C   0  0  0  0  0  0  0  0  0  0  0  0
  -51.0343   58.6694   62.7450 C   0  0  0  0  0  0  0  0  0  0  0  0
  -50.0112   58.9292   61.6532 C   0  0  0  0  0  0  0  0  0  0  0  0
  -49.2226   57.6951   61.2503 C   0  0  0  0  0  0  0  0  0  0  0  0
  -48.5784   57.7802   59.8765 C   0  0  0  0  0  0  0  0  0  0  0  0
  -48.5582   56.4529   59.1338 C   0  0  0  0  0  0  0  0  0  0  0  0
  -48.0023   56.5363   57.7260 C   0  0  0  0  0  0  0  0  0  0  0  0
  -47.5726   55.1990   57.1904 C   0  0  0  0  0  0  0  0  0  0  0  0
 21 22  1  0  0  0
  4  5  2  0  0  0
 25 24  1  0  0  0
 25 26  2  0  0  0
 25 27  1  0  0  0
 25 29  1  0  0  0
 22 20  1  0  0  0
  3  5  1  0  0  0
  3  2  1  0  0  0
 20 19  1  0  0  0
 24 23  1  0  0  0
 19 18  1  0  0  0
 18 17  1  0  0  0
 17 16  1  0  0  0
 29 30  1  0  0  0
 16 15  1  0  0  0
 34 35  1  0  0  0
 15 14  1  0  0  0
 31 32  1  0  0  0
 14 13  1  0  0  0
 37  1  1  0  0  0
 37 39  1  0  0  0
 13 12  1  0  0  0
 38 39  2  0  0  0
 12 11  1  0  0  0
 11 10  1  0  0  0
 10  9  1  0  0  0
  9  8  1  0  0  0
  8  7  1  0  0  0
  7  6  1  0  0  0
  6  5  1  0  0  0
  2  1  1  0  0  0
  1 23  1  0  0  0
 30 32  1  0  0  0
 32 35  1  0  0  0
 39 40  1  0  0  0
 40 41  1  0  0  0
 41 42  1  0  0  0
 42 43  1  0  0  0
 43 44  1  0  0  0
 44 45  1  0  0  0
 45 46  1  0  0  0
 46 47  1  0  0  0
 47 48  2  0  0  0
 48 49  1  0  0  0
 49 50  1  0  0  0
 50 51  1  0  0  0
 51 52  1  0  0  0
 52 53  1  0  0  0
 53 54  1  0  0  0
 54 55  1  0  0  0
 55 56  1  0  0  0
 27 28  1  0  0  0
 34 36  1  0  0  0
 31 33  1  0  0  0
M  CHG 1  26  -1
M  END
> <minimizedAffinity>
-8.85012

> <minimizedRMSD>
0.86927

> <CNNscore>
0.7701300383

> <CNNaffinity>
7.5881867409

> <CNN_VS>
5.8438906670

> <CNNaffinity_variance>
0.5141298771

$$$$
