


 17 16  0  0  0  0  0  0  0  0999 V2000
    1.1040   -2.9360   -0.3578 C   0  0  0  0  0  0  0  0  0  0  0  0
    0.3199   -2.9049   -1.6445 C   0  0  0  0  0  0  0  0  0  0  0  0
    0.4972   -3.2042    0.7722 C   0  0  0  0  0  0  0  0  0  0  0  0
    2.5858   -2.6608   -0.3709 C   0  0  0  0  0  0  0  0  0  0  0  0
    2.8934   -1.4766    0.5471 C   0  0  0  0  0  0  0  0  0  0  0  0
    1.4677    0.1154    2.3818 C   0  0  0  0  0  0  0  0  0  0  0  0
    1.4811    0.4799    0.9200 C   0  0  0  0  0  0  0  0  0  0  0  0
    0.7324    1.6966    0.4399 C   0  0  0  0  0  0  0  0  0  0  0  0
    2.1451   -0.2608    0.0672 C   0  0  0  0  0  0  0  0  0  0  0  0
   -1.0014   -3.3585    0.8048 C   0  0  0  0  0  0  0  0  0  0  0  0
   -1.5604   -2.6484    2.0391 C   0  0  0  0  0  0  0  0  0  0  0  0
   -1.9439   -1.2371    1.6759 C   0  0  0  0  0  0  0  0  0  0  0  0
   -2.1151   -0.8512    0.2299 C   0  0  0  0  0  0  0  0  0  0  0  0
   -2.1285   -0.3453    2.6183 C   0  0  0  0  0  0  0  0  0  0  0  0
   -2.5121    1.0659    2.2551 C   0  0  0  0  0  0  0  0  0  0  0  0
   -1.7105    1.9838    3.0005 O   0  0  0  0  0  0  0  0  0  0  0  0
   -1.8555    1.8432    3.9493 H   0  0  0  0  0  0  0  0  0  0  0  0
  6  7  1  0  0  0
  7  9  2  0  0  0
  7  8  1  0  0  0
  9  5  1  0  0  0
  5  4  1  0  0  0
  4  1  1  0  0  0
  1  3  2  0  0  0
  1  2  1  0  0  0
  3 10  1  0  0  0
 10 11  1  0  0  0
 11 12  1  0  0  0
 12 13  1  0  0  0
 12 14  2  0  0  0
 14 15  1  0  0  0
 15 16  1  0  0  0
 16 17  1  0  0  0
M  END
> <minimizedAffinity>
0.00000

> <CNNscore>
0.7986822724

> <CNNaffinity>
3.3728470802

> <CNN_VS>
2.6938331127

> <CNNaffinity_variance>
0.2542115748

$$$$



 17 16  0  0  0  0  0  0  0  0999 V2000
    2.3684   -1.2313   -2.4965 C   0  0  0  0  0  0  0  0  0  0  0  0
    2.2606   -2.7254   -2.3313 C   0  0  0  0  0  0  0  0  0  0  0  0
    3.0332   -0.5219   -1.6179 C   0  0  0  0  0  0  0  0  0  0  0  0
    1.7137   -0.5534   -3.6727 C   0  0  0  0  0  0  0  0  0  0  0  0
    0.7278    0.5024   -3.1698 C   0  0  0  0  0  0  0  0  0  0  0  0
    0.0237    1.6278   -0.6857 C   0  0  0  0  0  0  0  0  0  0  0  0
   -0.6495    0.3657   -1.1584 C   0  0  0  0  0  0  0  0  0  0  0  0
   -1.7001   -0.2941   -0.3024 C   0  0  0  0  0  0  0  0  0  0  0  0
   -0.3219   -0.1570   -2.3143 C   0  0  0  0  0  0  0  0  0  0  0  0
    3.5833   -1.1798   -0.3788 C   0  0  0  0  0  0  0  0  0  0  0  0
    3.3408   -0.2741    0.8298 C   0  0  0  0  0  0  0  0  0  0  0  0
    2.0380   -0.6510    1.4865 C   0  0  0  0  0  0  0  0  0  0  0  0
    1.3989   -1.9813    1.1844 C   0  0  0  0  0  0  0  0  0  0  0  0
    1.4606    0.1788    2.3205 C   0  0  0  0  0  0  0  0  0  0  0  0
    0.1578   -0.1980    2.9771 C   0  0  0  0  0  0  0  0  0  0  0  0
   -0.7488    0.9035    2.9029 O   0  0  0  0  0  0  0  0  0  0  0  0
   -0.3658    1.6688    3.3597 H   0  0  0  0  0  0  0  0  0  0  0  0
  6  7  1  0  0  0
  7  9  2  0  0  0
  7  8  1  0  0  0
  9  5  1  0  0  0
  5  4  1  0  0  0
  4  1  1  0  0  0
  1  3  2  0  0  0
  1  2  1  0  0  0
  3 10  1  0  0  0
 10 11  1  0  0  0
 11 12  1  0  0  0
 12 13  1  0  0  0
 12 14  2  0  0  0
 14 15  1  0  0  0
 15 16  1  0  0  0
 16 17  1  0  0  0
M  END
> <minimizedAffinity>
0.00000

> <CNNscore>
0.7961550355

> <CNNaffinity>
3.3861191273

> <CNN_VS>
2.6958758831

> <CNNaffinity_variance>
0.3168455064

$$$$



 17 16  0  0  0  0  0  0  0  0999 V2000
   -4.2183    2.4656   -0.4927 C   0  0  0  0  0  0  0  0  0  0  0  0
   -4.9809    2.5605   -1.7892 C   0  0  0  0  0  0  0  0  0  0  0  0
   -3.9798    1.2932    0.0419 C   0  0  0  0  0  0  0  0  0  0  0  0
   -3.7287    3.7181    0.1876 C   0  0  0  0  0  0  0  0  0  0  0  0
   -4.3061    3.7900    1.6021 C   0  0  0  0  0  0  0  0  0  0  0  0
   -5.8126    2.1089    3.2866 C   0  0  0  0  0  0  0  0  0  0  0  0
   -6.5119    3.0221    2.3138 C   0  0  0  0  0  0  0  0  0  0  0  0
   -8.0173    3.0366    2.2425 C   0  0  0  0  0  0  0  0  0  0  0  0
   -5.8105    3.8044    1.5309 C   0  0  0  0  0  0  0  0  0  0  0  0
   -4.5725    0.0507   -0.5708 C   0  0  0  0  0  0  0  0  0  0  0  0
   -5.0917   -0.8666    0.5377 C   0  0  0  0  0  0  0  0  0  0  0  0
   -6.5480   -0.5740    0.7908 C   0  0  0  0  0  0  0  0  0  0  0  0
   -7.3511    0.1911   -0.2285 C   0  0  0  0  0  0  0  0  0  0  0  0
   -7.1160   -0.9851    1.8980 C   0  0  0  0  0  0  0  0  0  0  0  0
   -8.5724   -0.6925    2.1511 C   0  0  0  0  0  0  0  0  0  0  0  0
   -8.7362   -0.2113    3.4861 O   0  0  0  0  0  0  0  0  0  0  0  0
   -8.4279   -0.8846    4.1126 H   0  0  0  0  0  0  0  0  0  0  0  0
  6  7  1  0  0  0
  7  9  2  0  0  0
  7  8  1  0  0  0
  9  5  1  0  0  0
  5  4  1  0  0  0
  4  1  1  0  0  0
  1  3  2  0  0  0
  1  2  1  0  0  0
  3 10  1  0  0  0
 10 11  1  0  0  0
 11 12  1  0  0  0
 12 13  1  0  0  0
 12 14  2  0  0  0
 14 15  1  0  0  0
 15 16  1  0  0  0
 16 17  1  0  0  0
M  END
> <minimizedAffinity>
0.00000

> <CNNscore>
0.7959232926

> <CNNaffinity>
3.3401076794

> <CNN_VS>
2.6584694386

> <CNNaffinity_variance>
0.2558875978

$$$$



 17 16  0  0  0  0  0  0  0  0999 V2000
    1.0357    1.4641    1.3648 C   0  0  0  0  0  0  0  0  0  0  0  0
    0.6369    1.2328    2.7997 C   0  0  0  0  0  0  0  0  0  0  0  0
    0.1149    1.6545    0.4521 C   0  0  0  0  0  0  0  0  0  0  0  0
    2.4928    1.4786    0.9801 C   0  0  0  0  0  0  0  0  0  0  0  0
    2.7503    0.4121   -0.0856 C   0  0  0  0  0  0  0  0  0  0  0  0
    1.1928   -1.3520   -1.6334 C   0  0  0  0  0  0  0  0  0  0  0  0
    1.6555   -1.7634   -0.2600 C   0  0  0  0  0  0  0  0  0  0  0  0
    1.2856   -3.1190    0.2851 C   0  0  0  0  0  0  0  0  0  0  0  0
    2.3805   -0.9425    0.4592 C   0  0  0  0  0  0  0  0  0  0  0  0
   -1.3422    1.5189    0.8117 C   0  0  0  0  0  0  0  0  0  0  0  0
   -2.0732    0.7624   -0.2989 C   0  0  0  0  0  0  0  0  0  0  0  0
   -2.0937   -0.7091    0.0251 C   0  0  0  0  0  0  0  0  0  0  0  0
   -1.8069   -1.1757    1.4285 C   0  0  0  0  0  0  0  0  0  0  0  0
   -2.3610   -1.5830   -0.9141 C   0  0  0  0  0  0  0  0  0  0  0  0
   -2.3816   -3.0544   -0.5901 C   0  0  0  0  0  0  0  0  0  0  0  0
   -1.6583   -3.7724   -1.5911 O   0  0  0  0  0  0  0  0  0  0  0  0
   -2.0717   -3.6260   -2.4563 H   0  0  0  0  0  0  0  0  0  0  0  0
  6  7  1  0  0  0
  7  9  2  0  0  0
  7  8  1  0  0  0
  9  5  1  0  0  0
  5  4  1  0  0  0
  4  1  1  0  0  0
  1  3  2  0  0  0
  1  2  1  0  0  0
  3 10  1  0  0  0
 10 11  1  0  0  0
 11 12  1  0  0  0
 12 13  1  0  0  0
 12 14  2  0  0  0
 14 15  1  0  0  0
 15 16  1  0  0  0
 16 17  1  0  0  0
M  END
> <minimizedAffinity>
0.00000

> <CNNscore>
0.7946270704

> <CNNaffinity>
3.3372600079

> <CNN_VS>
2.6518771648

> <CNNaffinity_variance>
0.2776052654

$$$$



 17 16  0  0  0  0  0  0  0  0999 V2000
    2.0846   -0.3503   -0.5344 C   0  0  0  0  0  0  0  0  0  0  0  0
    1.0161   -0.7139   -1.5332 C   0  0  0  0  0  0  0  0  0  0  0  0
    1.9737   -0.7374    0.7126 C   0  0  0  0  0  0  0  0  0  0  0  0
    3.2809    0.4562   -0.9700 C   0  0  0  0  0  0  0  0  0  0  0  0
    3.3640    1.7368   -0.1377 C   0  0  0  0  0  0  0  0  0  0  0  0
    2.0272    2.8197    2.0925 C   0  0  0  0  0  0  0  0  0  0  0  0
    1.4849    3.0482    0.7056 C   0  0  0  0  0  0  0  0  0  0  0  0
    0.2279    3.8567    0.5117 C   0  0  0  0  0  0  0  0  0  0  0  0
    2.1077    2.5447   -0.3314 C   0  0  0  0  0  0  0  0  0  0  0  0
    0.7222   -1.4369    1.1763 C   0  0  0  0  0  0  0  0  0  0  0  0
    0.3118   -0.8929    2.5459 C   0  0  0  0  0  0  0  0  0  0  0  0
   -0.6645    0.2405    2.3641 C   0  0  0  0  0  0  0  0  0  0  0  0
   -1.3734    0.4206    1.0472 C   0  0  0  0  0  0  0  0  0  0  0  0
   -0.8967    1.0697    3.3520 C   0  0  0  0  0  0  0  0  0  0  0  0
   -1.8730    2.2031    3.1702 C   0  0  0  0  0  0  0  0  0  0  0  0
   -1.3044    3.4083    3.6849 O   0  0  0  0  0  0  0  0  0  0  0  0
   -1.1102    3.2968    4.6288 H   0  0  0  0  0  0  0  0  0  0  0  0
  6  7  1  0  0  0
  7  9  2  0  0  0
  7  8  1  0  0  0
  9  5  1  0  0  0
  5  4  1  0  0  0
  4  1  1  0  0  0
  1  3  2  0  0  0
  1  2  1  0  0  0
  3 10  1  0  0  0
 10 11  1  0  0  0
 11 12  1  0  0  0
 12 13  1  0  0  0
 12 14  2  0  0  0
 14 15  1  0  0  0
 15 16  1  0  0  0
 16 17  1  0  0  0
M  END
> <minimizedAffinity>
0.00000

> <CNNscore>
0.7944970727

> <CNNaffinity>
3.3522746563

> <CNN_VS>
2.6633725166

> <CNNaffinity_variance>
0.2580418885

$$$$



 17 16  0  0  0  0  0  0  0  0999 V2000
   -5.0864   -0.1771   -1.3098 C   0  0  0  0  0  0  0  0  0  0  0  0
   -3.7829   -0.8882   -1.5681 C   0  0  0  0  0  0  0  0  0  0  0  0
   -5.2596    0.4868   -0.1934 C   0  0  0  0  0  0  0  0  0  0  0  0
   -6.1893   -0.2278   -2.3357 C   0  0  0  0  0  0  0  0  0  0  0  0
   -7.4496   -0.8187   -1.7018 C   0  0  0  0  0  0  0  0  0  0  0  0
   -8.2755   -1.5899    0.8782 C   0  0  0  0  0  0  0  0  0  0  0  0
   -7.5396   -2.5677   -0.0005 C   0  0  0  0  0  0  0  0  0  0  0  0
   -7.2461   -3.9584    0.5009 C   0  0  0  0  0  0  0  0  0  0  0  0
   -7.1562   -2.2084   -1.2008 C   0  0  0  0  0  0  0  0  0  0  0  0
   -4.2075    0.4372    0.8842 C   0  0  0  0  0  0  0  0  0  0  0  0
   -4.8821    0.2906    2.2492 C   0  0  0  0  0  0  0  0  0  0  0  0
   -4.9864   -1.1703    2.6036 C   0  0  0  0  0  0  0  0  0  0  0  0
   -4.1444   -2.1846    1.8744 C   0  0  0  0  0  0  0  0  0  0  0  0
   -5.8098   -1.5586    3.5463 C   0  0  0  0  0  0  0  0  0  0  0  0
   -5.9140   -3.0195    3.9006 C   0  0  0  0  0  0  0  0  0  0  0  0
   -7.2905   -3.3864    4.0070 O   0  0  0  0  0  0  0  0  0  0  0  0
   -7.7143   -2.8547    4.6988 H   0  0  0  0  0  0  0  0  0  0  0  0
  6  7  1  0  0  0
  7  9  2  0  0  0
  7  8  1  0  0  0
  9  5  1  0  0  0
  5  4  1  0  0  0
  4  1  1  0  0  0
  1  3  2  0  0  0
  1  2  1  0  0  0
  3 10  1  0  0  0
 10 11  1  0  0  0
 11 12  1  0  0  0
 12 13  1  0  0  0
 12 14  2  0  0  0
 14 15  1  0  0  0
 15 16  1  0  0  0
 16 17  1  0  0  0
M  END
> <minimizedAffinity>
0.00000

> <CNNscore>
0.7943294048

> <CNNaffinity>
3.3412120342

> <CNN_VS>
2.6540229321

> <CNNaffinity_variance>
0.2710378170

$$$$



 17 16  0  0  0  0  0  0  0  0999 V2000
   -2.1328   -2.9525   -0.3141 C   0  0  0  0  0  0  0  0  0  0  0  0
   -0.9729   -3.1668    0.6240 C   0  0  0  0  0  0  0  0  0  0  0  0
   -2.0059   -2.1443   -1.3378 C   0  0  0  0  0  0  0  0  0  0  0  0
   -3.4373   -3.6688   -0.0763 C   0  0  0  0  0  0  0  0  0  0  0  0
   -4.5630   -2.6438    0.0722 C   0  0  0  0  0  0  0  0  0  0  0  0
   -4.8440    0.1439   -0.2155 C   0  0  0  0  0  0  0  0  0  0  0  0
   -4.3931   -0.4356    1.1000 C   0  0  0  0  0  0  0  0  0  0  0  0
   -4.0932    0.4763    2.2619 C   0  0  0  0  0  0  0  0  0  0  0  0
   -4.2632   -1.7325    1.2333 C   0  0  0  0  0  0  0  0  0  0  0  0
   -0.7462   -1.3351   -1.5076 C   0  0  0  0  0  0  0  0  0  0  0  0
   -1.1082    0.0879   -1.9367 C   0  0  0  0  0  0  0  0  0  0  0  0
   -1.2324    0.9640   -0.7170 C   0  0  0  0  0  0  0  0  0  0  0  0
   -0.6475    0.5145    0.5964 C   0  0  0  0  0  0  0  0  0  0  0  0
   -1.8495    2.1173   -0.7989 C   0  0  0  0  0  0  0  0  0  0  0  0
   -1.9736    2.9934    0.4207 C   0  0  0  0  0  0  0  0  0  0  0  0
   -3.3142    3.4755    0.5260 O   0  0  0  0  0  0  0  0  0  0  0  0
   -3.5359    3.9901   -0.2658 H   0  0  0  0  0  0  0  0  0  0  0  0
  6  7  1  0  0  0
  7  9  2  0  0  0
  7  8  1  0  0  0
  9  5  1  0  0  0
  5  4  1  0  0  0
  4  1  1  0  0  0
  1  3  2  0  0  0
  1  2  1  0  0  0
  3 10  1  0  0  0
 10 11  1  0  0  0
 11 12  1  0  0  0
 12 13  1  0  0  0
 12 14  2  0  0  0
 14 15  1  0  0  0
 15 16  1  0  0  0
 16 17  1  0  0  0
M  END
> <minimizedAffinity>
0.00000

> <CNNscore>
0.7941449881

> <CNNaffinity>
3.3925945759

> <CNN_VS>
2.6942119598

> <CNNaffinity_variance>
0.3173074126

$$$$



 17 16  0  0  0  0  0  0  0  0999 V2000
    1.6409    0.8052   -2.9729 C   0  0  0  0  0  0  0  0  0  0  0  0
    0.4013   -0.0395   -3.1190 C   0  0  0  0  0  0  0  0  0  0  0  0
    2.3142    0.7906   -1.8489 C   0  0  0  0  0  0  0  0  0  0  0  0
    2.1071    1.6648   -4.1198 C   0  0  0  0  0  0  0  0  0  0  0  0
    2.1763    3.1246   -3.6686 C   0  0  0  0  0  0  0  0  0  0  0  0
    1.8915    4.5348   -1.2472 C   0  0  0  0  0  0  0  0  0  0  0  0
    0.6794    4.2315   -2.0888 C   0  0  0  0  0  0  0  0  0  0  0  0
   -0.6851    4.6833   -1.6354 C   0  0  0  0  0  0  0  0  0  0  0  0
    0.8127    3.5760   -3.2155 C   0  0  0  0  0  0  0  0  0  0  0  0
    1.7834    0.0286   -0.6622 C   0  0  0  0  0  0  0  0  0  0  0  0
    1.9754    0.8619    0.6062 C   0  0  0  0  0  0  0  0  0  0  0  0
    0.7343    1.6765    0.8646 C   0  0  0  0  0  0  0  0  0  0  0  0
   -0.5591    1.3167    0.1813 C   0  0  0  0  0  0  0  0  0  0  0  0
    0.7803    2.6984    1.6839 C   0  0  0  0  0  0  0  0  0  0  0  0
   -0.4608    3.5130    1.9423 C   0  0  0  0  0  0  0  0  0  0  0  0
   -0.1419    4.9034    1.8665 O   0  0  0  0  0  0  0  0  0  0  0  0
    0.5301    5.1177    2.5323 H   0  0  0  0  0  0  0  0  0  0  0  0
  6  7  1  0  0  0
  7  9  2  0  0  0
  7  8  1  0  0  0
  9  5  1  0  0  0
  5  4  1  0  0  0
  4  1  1  0  0  0
  1  3  2  0  0  0
  1  2  1  0  0  0
  3 10  1  0  0  0
 10 11  1  0  0  0
 11 12  1  0  0  0
 12 13  1  0  0  0
 12 14  2  0  0  0
 14 15  1  0  0  0
 15 16  1  0  0  0
 16 17  1  0  0  0
M  END
> <minimizedAffinity>
0.00000

> <CNNscore>
0.7939440012

> <CNNaffinity>
3.3390483856

> <CNN_VS>
2.6510174274

> <CNNaffinity_variance>
0.3001689315

$$$$



 17 16  0  0  0  0  0  0  0  0999 V2000
    1.1170    0.1955   -1.4293 C   0  0  0  0  0  0  0  0  0  0  0  0
    1.5991   -0.7555   -0.3641 C   0  0  0  0  0  0  0  0  0  0  0  0
    0.0831    0.9668   -1.1987 C   0  0  0  0  0  0  0  0  0  0  0  0
    1.8249    0.2608   -2.7582 C   0  0  0  0  0  0  0  0  0  0  0  0
    0.8317   -0.0421   -3.8813 C   0  0  0  0  0  0  0  0  0  0  0  0
   -1.9473   -0.4429   -4.1034 C   0  0  0  0  0  0  0  0  0  0  0  0
   -1.0424   -1.6041   -3.7836 C   0  0  0  0  0  0  0  0  0  0  0  0
   -1.6241   -2.9800   -3.5833 C   0  0  0  0  0  0  0  0  0  0  0  0
    0.2504   -1.4171   -3.6810 C   0  0  0  0  0  0  0  0  0  0  0  0
   -0.6993    0.8164    0.0803 C   0  0  0  0  0  0  0  0  0  0  0  0
   -2.1959    0.9028   -0.2243 C   0  0  0  0  0  0  0  0  0  0  0  0
   -2.7429   -0.4827   -0.4519 C   0  0  0  0  0  0  0  0  0  0  0  0
   -1.9594   -1.6863    0.0027 C   0  0  0  0  0  0  0  0  0  0  0  0
   -3.9005   -0.6405   -1.0457 C   0  0  0  0  0  0  0  0  0  0  0  0
   -4.4476   -2.0260   -1.2733 C   0  0  0  0  0  0  0  0  0  0  0  0
   -4.9337   -2.1318   -2.6124 O   0  0  0  0  0  0  0  0  0  0  0  0
   -5.6372   -1.4790   -2.7535 H   0  0  0  0  0  0  0  0  0  0  0  0
  6  7  1  0  0  0
  7  9  2  0  0  0
  7  8  1  0  0  0
  9  5  1  0  0  0
  5  4  1  0  0  0
  4  1  1  0  0  0
  1  3  2  0  0  0
  1  2  1  0  0  0
  3 10  1  0  0  0
 10 11  1  0  0  0
 11 12  1  0  0  0
 12 13  1  0  0  0
 12 14  2  0  0  0
 14 15  1  0  0  0
 15 16  1  0  0  0
 16 17  1  0  0  0
M  END
> <minimizedAffinity>
0.00000

> <CNNscore>
0.7937008739

> <CNNaffinity>
3.3661797047

> <CNN_VS>
2.6717398167

> <CNNaffinity_variance>
0.2834993899

$$$$
