


 17 16  0  0  0  0  0  0  0  0999 V2000
  -49.9814   58.3187   60.9680 C   0  0  0  0  0  0  0  0  0  0  0  0
  -49.9798   59.8111   60.7963 C   0  0  0  0  0  0  0  0  0  0  0  0
  -49.7284   57.7973   62.1766 C   0  0  0  0  0  0  0  0  0  0  0  0
  -50.2702   57.4049   59.7957 C   0  0  0  0  0  0  0  0  0  0  0  0
  -49.1280   56.4158   59.5878 C   0  0  0  0  0  0  0  0  0  0  0  0
  -46.4760   57.4141   60.0117 C   0  0  0  0  0  0  0  0  0  0  0  0
  -47.0251   57.3038   58.6221 C   0  0  0  0  0  0  0  0  0  0  0  0
  -46.1804   57.7210   57.4559 C   0  0  0  0  0  0  0  0  0  0  0  0
  -48.2669   56.8388   58.4200 C   0  0  0  0  0  0  0  0  0  0  0  0
  -49.4452   58.7043   63.3520 C   0  0  0  0  0  0  0  0  0  0  0  0
  -48.1141   58.3325   63.9940 C   0  0  0  0  0  0  0  0  0  0  0  0
  -48.3514   57.6671   65.3324 C   0  0  0  0  0  0  0  0  0  0  0  0
  -49.6464   57.8860   66.0510 C   0  0  0  0  0  0  0  0  0  0  0  0
  -47.4142   56.8748   65.8735 C   0  0  0  0  0  0  0  0  0  0  0  0
  -47.9855   54.8233   67.0120 O   0  0  0  0  0  0  0  0  0  0  0  0
  -47.6350   56.1979   67.2070 C   0  0  0  0  0  0  0  0  0  0  0  0
  -48.1246   54.3998   67.8735 H   0  0  0  0  0  0  0  0  0  0  0  0
  6  7  1  0  0  0
 15 16  1  0  0  0
  7  8  1  0  0  0
  7  9  2  0  0  0
  9  5  1  0  0  0
  5  4  1  0  0  0
  4  1  1  0  0  0
  1  2  1  0  0  0
  1  3  2  0  0  0
  3 10  1  0  0  0
 10 11  1  0  0  0
 11 12  1  0  0  0
 12 13  1  0  0  0
 12 14  2  0  0  0
 14 16  1  0  0  0
 15 17  1  0  0  0
M  END
> <minimizedAffinity>
-7.89703

$$$$



 17 16  0  0  0  0  0  0  0  0999 V2000
  -50.0505   58.4126   60.9345 C   0  0  0  0  0  0  0  0  0  0  0  0
  -50.0127   59.9119   60.8476 C   0  0  0  0  0  0  0  0  0  0  0  0
  -49.7866   57.8167   62.1058 C   0  0  0  0  0  0  0  0  0  0  0  0
  -50.3878   57.5750   59.7190 C   0  0  0  0  0  0  0  0  0  0  0  0
  -49.2553   56.6043   59.4010 C   0  0  0  0  0  0  0  0  0  0  0  0
  -47.6469   55.4317   57.3401 C   0  0  0  0  0  0  0  0  0  0  0  0
  -47.3163   56.7940   57.8686 C   0  0  0  0  0  0  0  0  0  0  0  0
  -46.1385   57.5382   57.3152 C   0  0  0  0  0  0  0  0  0  0  0  0
  -48.0658   57.3452   58.8348 C   0  0  0  0  0  0  0  0  0  0  0  0
  -49.4550   58.6474   63.3240 C   0  0  0  0  0  0  0  0  0  0  0  0
  -48.1736   58.1394   63.9737 C   0  0  0  0  0  0  0  0  0  0  0  0
  -48.4835   57.5247   65.3214 C   0  0  0  0  0  0  0  0  0  0  0  0
  -49.7241   57.9303   66.0548 C   0  0  0  0  0  0  0  0  0  0  0  0
  -47.6602   56.6119   65.8579 C   0  0  0  0  0  0  0  0  0  0  0  0
  -47.0927   56.5310   68.2037 O   0  0  0  0  0  0  0  0  0  0  0  0
  -47.9555   55.9834   67.2006 C   0  0  0  0  0  0  0  0  0  0  0  0
  -47.2912   56.1208   69.0600 H   0  0  0  0  0  0  0  0  0  0  0  0
  6  7  1  0  0  0
 15 16  1  0  0  0
  7  8  1  0  0  0
  7  9  2  0  0  0
  9  5  1  0  0  0
  5  4  1  0  0  0
  4  1  1  0  0  0
  1  2  1  0  0  0
  1  3  2  0  0  0
  3 10  1  0  0  0
 10 11  1  0  0  0
 11 12  1  0  0  0
 12 13  1  0  0  0
 12 14  2  0  0  0
 14 16  1  0  0  0
 15 17  1  0  0  0
M  END
> <minimizedAffinity>
-7.64453

$$$$



 17 16  0  0  0  0  0  0  0  0999 V2000
  -49.7884   57.9711   61.1103 C   0  0  0  0  0  0  0  0  0  0  0  0
  -49.2876   57.8736   62.5233 C   0  0  0  0  0  0  0  0  0  0  0  0
  -49.9587   59.1800   60.5568 C   0  0  0  0  0  0  0  0  0  0  0  0
  -50.0950   56.7230   60.3097 C   0  0  0  0  0  0  0  0  0  0  0  0
  -48.8074   56.0382   59.8631 C   0  0  0  0  0  0  0  0  0  0  0  0
  -46.3499   57.4912   60.1053 C   0  0  0  0  0  0  0  0  0  0  0  0
  -47.0613   57.4307   58.7882 C   0  0  0  0  0  0  0  0  0  0  0  0
  -46.4816   58.1365   57.5994 C   0  0  0  0  0  0  0  0  0  0  0  0
  -48.2130   56.7531   58.6716 C   0  0  0  0  0  0  0  0  0  0  0  0
  -49.6489   60.4294   61.3487 C   0  0  0  0  0  0  0  0  0  0  0  0
  -48.4733   61.1703   60.7231 C   0  0  0  0  0  0  0  0  0  0  0  0
  -47.3793   61.3686   61.7498 C   0  0  0  0  0  0  0  0  0  0  0  0
  -47.6930   61.2227   63.2065 C   0  0  0  0  0  0  0  0  0  0  0  0
  -46.1293   61.6634   61.3631 C   0  0  0  0  0  0  0  0  0  0  0  0
  -43.9516   62.6137   61.7940 O   0  0  0  0  0  0  0  0  0  0  0  0
  -45.0225   61.8604   62.3737 C   0  0  0  0  0  0  0  0  0  0  0  0
  -43.2480   62.7337   62.4509 H   0  0  0  0  0  0  0  0  0  0  0  0
  6  7  1  0  0  0
 15 16  1  0  0  0
  7  8  1  0  0  0
  7  9  2  0  0  0
  9  5  1  0  0  0
  5  4  1  0  0  0
  4  1  1  0  0  0
  1  2  1  0  0  0
  1  3  2  0  0  0
  3 10  1  0  0  0
 10 11  1  0  0  0
 11 12  1  0  0  0
 12 13  1  0  0  0
 12 14  2  0  0  0
 14 16  1  0  0  0
 15 17  1  0  0  0
M  END
> <minimizedAffinity>
-7.58090

$$$$



 17 16  0  0  0  0  0  0  0  0999 V2000
  -49.9266   58.4671   61.0755 C   0  0  0  0  0  0  0  0  0  0  0  0
  -49.6223   57.6967   62.3288 C   0  0  0  0  0  0  0  0  0  0  0  0
  -49.9257   59.8070   61.1128 C   0  0  0  0  0  0  0  0  0  0  0  0
  -50.2268   57.7470   59.7779 C   0  0  0  0  0  0  0  0  0  0  0  0
  -49.2153   56.6322   59.5323 C   0  0  0  0  0  0  0  0  0  0  0  0
  -46.5025   57.4636   59.9315 C   0  0  0  0  0  0  0  0  0  0  0  0
  -47.0603   57.3568   58.5451 C   0  0  0  0  0  0  0  0  0  0  0  0
  -46.1922   57.6898   57.3691 C   0  0  0  0  0  0  0  0  0  0  0  0
  -48.3304   56.9699   58.3546 C   0  0  0  0  0  0  0  0  0  0  0  0
  -49.6210   60.5317   62.4036 C   0  0  0  0  0  0  0  0  0  0  0  0
  -48.1633   60.9751   62.4260 C   0  0  0  0  0  0  0  0  0  0  0  0
  -47.5545   60.6887   63.7816 C   0  0  0  0  0  0  0  0  0  0  0  0
  -46.0796   60.8501   63.9821 C   0  0  0  0  0  0  0  0  0  0  0  0
  -48.3283   60.3018   64.8065 C   0  0  0  0  0  0  0  0  0  0  0  0
  -48.7694   60.0146   67.1632 O   0  0  0  0  0  0  0  0  0  0  0  0
  -47.7390   60.0158   66.1689 C   0  0  0  0  0  0  0  0  0  0  0  0
  -48.3798   59.8302   68.0323 H   0  0  0  0  0  0  0  0  0  0  0  0
  6  7  1  0  0  0
 15 16  1  0  0  0
  7  8  1  0  0  0
  7  9  2  0  0  0
  9  5  1  0  0  0
  5  4  1  0  0  0
  4  1  1  0  0  0
  1  2  1  0  0  0
  1  3  2  0  0  0
  3 10  1  0  0  0
 10 11  1  0  0  0
 11 12  1  0  0  0
 12 13  1  0  0  0
 12 14  2  0  0  0
 14 16  1  0  0  0
 15 17  1  0  0  0
M  END
> <minimizedAffinity>
-7.49546

$$$$



 17 16  0  0  0  0  0  0  0  0999 V2000
  -50.0178   58.3780   60.8754 C   0  0  0  0  0  0  0  0  0  0  0  0
  -50.0263   59.8802   60.8666 C   0  0  0  0  0  0  0  0  0  0  0  0
  -49.6767   57.7307   61.9985 C   0  0  0  0  0  0  0  0  0  0  0  0
  -50.3944   57.5944   59.6358 C   0  0  0  0  0  0  0  0  0  0  0  0
  -49.3343   56.5452   59.3173 C   0  0  0  0  0  0  0  0  0  0  0  0
  -48.2614   56.3697   56.6664 C   0  0  0  0  0  0  0  0  0  0  0  0
  -47.5224   57.1250   57.7285 C   0  0  0  0  0  0  0  0  0  0  0  0
  -46.2181   57.7856   57.3970 C   0  0  0  0  0  0  0  0  0  0  0  0
  -48.0207   57.2075   58.9711 C   0  0  0  0  0  0  0  0  0  0  0  0
  -49.3053   58.5072   63.2409 C   0  0  0  0  0  0  0  0  0  0  0  0
  -47.8590   58.2215   63.6266 C   0  0  0  0  0  0  0  0  0  0  0  0
  -46.9197   58.9995   62.7308 C   0  0  0  0  0  0  0  0  0  0  0  0
  -45.9926   58.2661   61.8119 C   0  0  0  0  0  0  0  0  0  0  0  0
  -46.9197   60.3406   62.7468 C   0  0  0  0  0  0  0  0  0  0  0  0
  -46.7360   61.7773   60.8146 O   0  0  0  0  0  0  0  0  0  0  0  0
  -45.9920   61.1349   61.8559 C   0  0  0  0  0  0  0  0  0  0  0  0
  -46.1310   62.2834   60.2500 H   0  0  0  0  0  0  0  0  0  0  0  0
  6  7  1  0  0  0
 15 16  1  0  0  0
  7  8  1  0  0  0
  7  9  2  0  0  0
  9  5  1  0  0  0
  5  4  1  0  0  0
  4  1  1  0  0  0
  1  2  1  0  0  0
  1  3  2  0  0  0
  3 10  1  0  0  0
 10 11  1  0  0  0
 11 12  1  0  0  0
 12 13  1  0  0  0
 12 14  2  0  0  0
 14 16  1  0  0  0
 15 17  1  0  0  0
M  END
> <minimizedAffinity>
-7.41834

$$$$



 17 16  0  0  0  0  0  0  0  0999 V2000
  -48.3585   59.0594   60.8773 C   0  0  0  0  0  0  0  0  0  0  0  0
  -49.7532   59.5530   60.6165 C   0  0  0  0  0  0  0  0  0  0  0  0
  -48.1323   58.2569   61.9268 C   0  0  0  0  0  0  0  0  0  0  0  0
  -47.2148   59.4540   59.9669 C   0  0  0  0  0  0  0  0  0  0  0  0
  -46.4749   58.2191   59.4630 C   0  0  0  0  0  0  0  0  0  0  0  0
  -47.9683   55.7925   59.1618 C   0  0  0  0  0  0  0  0  0  0  0  0
  -47.7032   56.6651   57.9731 C   0  0  0  0  0  0  0  0  0  0  0  0
  -48.2211   56.2600   56.6259 C   0  0  0  0  0  0  0  0  0  0  0  0
  -47.0027   57.8007   58.1100 C   0  0  0  0  0  0  0  0  0  0  0  0
  -49.2708   57.8548   62.8359 C   0  0  0  0  0  0  0  0  0  0  0  0
  -49.2785   58.7265   64.0858 C   0  0  0  0  0  0  0  0  0  0  0  0
  -49.1510   57.8626   65.3218 C   0  0  0  0  0  0  0  0  0  0  0  0
  -50.2689   57.8210   66.3169 C   0  0  0  0  0  0  0  0  0  0  0  0
  -48.0487   57.1264   65.5261 C   0  0  0  0  0  0  0  0  0  0  0  0
  -47.5537   54.9192   66.3712 O   0  0  0  0  0  0  0  0  0  0  0  0
  -47.9053   56.2539   66.7522 C   0  0  0  0  0  0  0  0  0  0  0  0
  -47.4646   54.3691   67.1652 H   0  0  0  0  0  0  0  0  0  0  0  0
  6  7  1  0  0  0
 15 16  1  0  0  0
  7  8  1  0  0  0
  7  9  2  0  0  0
  9  5  1  0  0  0
  5  4  1  0  0  0
  4  1  1  0  0  0
  1  2  1  0  0  0
  1  3  2  0  0  0
  3 10  1  0  0  0
 10 11  1  0  0  0
 11 12  1  0  0  0
 12 13  1  0  0  0
 12 14  2  0  0  0
 14 16  1  0  0  0
 15 17  1  0  0  0
M  END
> <minimizedAffinity>
-7.34494

$$$$



 17 16  0  0  0  0  0  0  0  0999 V2000
  -46.5005   57.6137   58.3236 C   0  0  0  0  0  0  0  0  0  0  0  0
  -46.5804   59.0823   58.0174 C   0  0  0  0  0  0  0  0  0  0  0  0
  -46.1457   57.2187   59.5543 C   0  0  0  0  0  0  0  0  0  0  0  0
  -46.8209   56.5830   57.2616 C   0  0  0  0  0  0  0  0  0  0  0  0
  -48.1553   55.9044   57.5529 C   0  0  0  0  0  0  0  0  0  0  0  0
  -49.2955   55.7589   60.1775 C   0  0  0  0  0  0  0  0  0  0  0  0
  -49.7082   56.8501   59.2375 C   0  0  0  0  0  0  0  0  0  0  0  0
  -50.7224   57.8629   59.6769 C   0  0  0  0  0  0  0  0  0  0  0  0
  -49.1781   56.9201   58.0074 C   0  0  0  0  0  0  0  0  0  0  0  0
  -45.8304   58.2428   60.6203 C   0  0  0  0  0  0  0  0  0  0  0  0
  -47.0829   58.5654   61.4261 C   0  0  0  0  0  0  0  0  0  0  0  0
  -47.3248   60.0593   61.4334 C   0  0  0  0  0  0  0  0  0  0  0  0
  -48.5563   60.6151   60.7883 C   0  0  0  0  0  0  0  0  0  0  0  0
  -46.4493   60.8870   62.0226 C   0  0  0  0  0  0  0  0  0  0  0  0
  -45.8501   63.0214   61.0652 O   0  0  0  0  0  0  0  0  0  0  0  0
  -46.6762   62.3814   62.0441 C   0  0  0  0  0  0  0  0  0  0  0  0
  -46.0041   63.9788   61.0882 H   0  0  0  0  0  0  0  0  0  0  0  0
  6  7  1  0  0  0
 15 16  1  0  0  0
  7  8  1  0  0  0
  7  9  2  0  0  0
  9  5  1  0  0  0
  5  4  1  0  0  0
  4  1  1  0  0  0
  1  2  1  0  0  0
  1  3  2  0  0  0
  3 10  1  0  0  0
 10 11  1  0  0  0
 11 12  1  0  0  0
 12 13  1  0  0  0
 12 14  2  0  0  0
 14 16  1  0  0  0
 15 17  1  0  0  0
M  END
> <minimizedAffinity>
-7.33537

$$$$



 17 16  0  0  0  0  0  0  0  0999 V2000
  -49.1023   59.2881   61.3730 C   0  0  0  0  0  0  0  0  0  0  0  0
  -49.9259   58.1981   60.7480 C   0  0  0  0  0  0  0  0  0  0  0  0
  -48.8902   59.2729   62.6965 C   0  0  0  0  0  0  0  0  0  0  0  0
  -48.5091   60.3932   60.5248 C   0  0  0  0  0  0  0  0  0  0  0  0
  -47.0457   60.1038   60.2072 C   0  0  0  0  0  0  0  0  0  0  0  0
  -46.1361   57.3952   59.9942 C   0  0  0  0  0  0  0  0  0  0  0  0
  -46.4944   58.1675   58.7614 C   0  0  0  0  0  0  0  0  0  0  0  0
  -46.3717   57.5162   57.4167 C   0  0  0  0  0  0  0  0  0  0  0  0
  -46.9186   59.4364   58.8572 C   0  0  0  0  0  0  0  0  0  0  0  0
  -49.4748   58.1692   63.5477 C   0  0  0  0  0  0  0  0  0  0  0  0
  -49.8251   58.7024   64.9316 C   0  0  0  0  0  0  0  0  0  0  0  0
  -48.7205   58.3695   65.9109 C   0  0  0  0  0  0  0  0  0  0  0  0
  -47.7829   59.4445   66.3659 C   0  0  0  0  0  0  0  0  0  0  0  0
  -48.5825   57.1213   66.3817 C   0  0  0  0  0  0  0  0  0  0  0  0
  -46.3856   56.1645   66.6808 O   0  0  0  0  0  0  0  0  0  0  0  0
  -47.4883   56.7708   67.3641 C   0  0  0  0  0  0  0  0  0  0  0  0
  -45.6905   55.9442   67.3205 H   0  0  0  0  0  0  0  0  0  0  0  0
  6  7  1  0  0  0
 15 16  1  0  0  0
  7  8  1  0  0  0
  7  9  2  0  0  0
  9  5  1  0  0  0
  5  4  1  0  0  0
  4  1  1  0  0  0
  1  2  1  0  0  0
  1  3  2  0  0  0
  3 10  1  0  0  0
 10 11  1  0  0  0
 11 12  1  0  0  0
 12 13  1  0  0  0
 12 14  2  0  0  0
 14 16  1  0  0  0
 15 17  1  0  0  0
M  END
> <minimizedAffinity>
-7.17285

$$$$



 17 16  0  0  0  0  0  0  0  0999 V2000
  -49.1274   58.2528   61.7318 C   0  0  0  0  0  0  0  0  0  0  0  0
  -49.8767   58.2420   60.4298 C   0  0  0  0  0  0  0  0  0  0  0  0
  -47.7988   58.4305   61.7225 C   0  0  0  0  0  0  0  0  0  0  0  0
  -49.8567   58.0713   63.0463 C   0  0  0  0  0  0  0  0  0  0  0  0
  -49.0654   58.6916   64.1931 C   0  0  0  0  0  0  0  0  0  0  0  0
  -46.6966   57.4174   65.1803 C   0  0  0  0  0  0  0  0  0  0  0  0
  -48.0076   57.2103   65.8754 C   0  0  0  0  0  0  0  0  0  0  0  0
  -48.0731   56.3310   67.0879 C   0  0  0  0  0  0  0  0  0  0  0  0
  -49.1189   57.8035   65.4149 C   0  0  0  0  0  0  0  0  0  0  0  0
  -47.0659   58.6181   60.4141 C   0  0  0  0  0  0  0  0  0  0  0  0
  -46.2489   57.3742   60.0864 C   0  0  0  0  0  0  0  0  0  0  0  0
  -46.5232   56.9327   58.6650 C   0  0  0  0  0  0  0  0  0  0  0  0
  -46.2229   57.8600   57.5286 C   0  0  0  0  0  0  0  0  0  0  0  0
  -47.0233   55.7133   58.4163 C   0  0  0  0  0  0  0  0  0  0  0  0
  -48.6369   55.5956   56.6237 O   0  0  0  0  0  0  0  0  0  0  0  0
  -47.2994   55.2530   57.0031 C   0  0  0  0  0  0  0  0  0  0  0  0
  -48.8024   55.2957   55.7162 H   0  0  0  0  0  0  0  0  0  0  0  0
  6  7  1  0  0  0
 15 16  1  0  0  0
  7  8  1  0  0  0
  7  9  2  0  0  0
  9  5  1  0  0  0
  5  4  1  0  0  0
  4  1  1  0  0  0
  1  2  1  0  0  0
  1  3  2  0  0  0
  3 10  1  0  0  0
 10 11  1  0  0  0
 11 12  1  0  0  0
 12 13  1  0  0  0
 12 14  2  0  0  0
 14 16  1  0  0  0
 15 17  1  0  0  0
M  END
> <minimizedAffinity>
-7.11476

$$$$
