


 37 36  0  0  0  0  0  0  0  0999 V2000
  -42.4236   58.4993   67.4494 O   0  0  0  0  0  0  0  0  0  0  0  0
  -42.9813   58.9493   66.4793 C   0  0  0  0  0  0  0  0  0  0  0  0
  -42.3672   59.2481   65.3307 O   0  0  0  0  0  0  0  0  0  0  0  0
  -41.1316   58.5633   65.0289 C   0  0  0  0  0  0  0  0  0  0  0  0
  -39.9524   59.5128   65.0255 C   0  0  0  0  0  0  0  0  0  0  0  0
  -40.0319   60.4373   66.1189 O   0  0  0  0  0  0  0  0  0  0  0  0
  -39.9859   59.9515   66.9571 H   0  0  0  0  0  0  0  0  0  0  0  0
  -38.6261   58.7910   65.0731 C   0  0  0  0  0  0  0  0  0  0  0  0
  -37.5178   59.6830   64.8024 O   0  0  0  0  0  0  0  0  0  0  0  0
  -37.3254   60.8778   63.7481 P   0  0  0  0  0  0  0  0  0  0  0  0
  -35.8681   61.3332   63.8034 O   0  0  0  0  0  0  0  0  0  0  0  0
  -38.1878   62.0097   64.1522 O   0  0  0  0  0  0  0  0  0  0  0  0
  -37.9655   62.2785   65.0573 H   0  0  0  0  0  0  0  0  0  0  0  0
  -37.6704   60.3899   62.2158 O   0  0  0  0  0  0  0  0  0  0  0  0
  -38.9987   60.2685   61.6382 C   0  0  0  0  0  0  0  0  0  0  0  0
  -39.0524   59.0909   60.6967 C   0  0  0  0  0  0  0  0  0  0  0  0
  -40.1353   58.0614   60.9612 N   0  0  0  0  0  0  0  0  0  0  0  0
  -40.4930   57.3416   59.7006 C   0  0  0  0  0  0  0  0  0  0  0  0
  -41.3467   58.7650   61.4790 C   0  0  0  0  0  0  0  0  0  0  0  0
  -39.6705   57.0576   61.9775 C   0  0  0  0  0  0  0  0  0  0  0  0
  -44.4428   59.2652   66.3887 C   0  0  0  0  0  0  0  0  0  0  0  0
  -44.8497   59.8373   65.0361 C   0  0  0  0  0  0  0  0  0  0  0  0
  -46.3427   60.0692   64.8791 C   0  0  0  0  0  0  0  0  0  0  0  0
  -47.1003   58.8373   64.4160 C   0  0  0  0  0  0  0  0  0  0  0  0
  -47.7991   58.1103   65.5521 C   0  0  0  0  0  0  0  0  0  0  0  0
  -49.2803   58.4127   65.5994 C   0  0  0  0  0  0  0  0  0  0  0  0
  -49.6479   59.8412   65.2529 C   0  0  0  0  0  0  0  0  0  0  0  0
  -50.9575   59.9799   64.5761 C   0  0  0  0  0  0  0  0  0  0  0  0
  -51.1744   59.8891   63.2802 C   0  0  0  0  0  0  0  0  0  0  0  0
  -50.1701   59.5888   62.2154 C   0  0  0  0  0  0  0  0  0  0  0  0
  -50.0702   58.0783   61.9966 C   0  0  0  0  0  0  0  0  0  0  0  0
  -50.9064   57.5289   60.8500 C   0  0  0  0  0  0  0  0  0  0  0  0
  -50.3848   57.8587   59.4567 C   0  0  0  0  0  0  0  0  0  0  0  0
  -48.8793   57.6651   59.3080 C   0  0  0  0  0  0  0  0  0  0  0  0
  -48.4519   56.2070   59.2535 C   0  0  0  0  0  0  0  0  0  0  0  0
  -47.1388   55.9396   58.5333 C   0  0  0  0  0  0  0  0  0  0  0  0
  -47.3288   55.6101   57.0846 C   0  0  0  0  0  0  0  0  0  0  0  0
 17 16  1  0  0  0
 17 18  1  0  0  0
 17 19  1  0  0  0
 17 20  1  0  0  0
  5  6  1  0  0  0
  5  8  1  0  0  0
  5  4  1  0  0  0
 10  9  1  0  0  0
 10 11  2  0  0  0
 10 14  1  0  0  0
 10 12  1  0  0  0
  8  9  1  0  0  0
 15 16  1  0  0  0
 15 14  1  0  0  0
  3  4  1  0  0  0
  3  2  1  0  0  0
  1  2  2  0  0  0
  2 21  1  0  0  0
 21 22  1  0  0  0
 22 23  1  0  0  0
 23 24  1  0  0  0
 24 25  1  0  0  0
 25 26  1  0  0  0
 26 27  1  0  0  0
 27 28  1  0  0  0
 28 29  2  0  0  0
 29 30  1  0  0  0
 30 31  1  0  0  0
 31 32  1  0  0  0
 32 33  1  0  0  0
 33 34  1  0  0  0
 34 35  1  0  0  0
 35 36  1  0  0  0
 36 37  1  0  0  0
  6  7  1  0  0  0
 12 13  1  0  0  0
M  CHG 1  11  -1
M  END
> <minimizedAffinity>
-7.97756

$$$$



 37 36  0  0  0  0  0  0  0  0999 V2000
  -41.7830   55.5903   63.7549 O   0  0  0  0  0  0  0  0  0  0  0  0
  -42.4562   56.5405   64.0689 C   0  0  0  0  0  0  0  0  0  0  0  0
  -42.8342   57.5051   63.2250 O   0  0  0  0  0  0  0  0  0  0  0  0
  -41.8014   58.2144   62.5058 C   0  0  0  0  0  0  0  0  0  0  0  0
  -42.1406   59.6808   62.3416 C   0  0  0  0  0  0  0  0  0  0  0  0
  -43.5453   59.9079   62.5192 O   0  0  0  0  0  0  0  0  0  0  0  0
  -43.7992   59.6710   63.4249 H   0  0  0  0  0  0  0  0  0  0  0  0
  -41.3647   60.5654   63.2890 C   0  0  0  0  0  0  0  0  0  0  0  0
  -41.5867   60.1980   64.6722 O   0  0  0  0  0  0  0  0  0  0  0  0
  -40.5795   59.8558   65.8741 P   0  0  0  0  0  0  0  0  0  0  0  0
  -41.3963   59.7233   67.1583 O   0  0  0  0  0  0  0  0  0  0  0  0
  -39.6320   60.9807   66.0330 O   0  0  0  0  0  0  0  0  0  0  0  0
  -40.1265   61.8003   66.1896 H   0  0  0  0  0  0  0  0  0  0  0  0
  -39.7803   58.4435   65.6061 O   0  0  0  0  0  0  0  0  0  0  0  0
  -38.4171   58.3144   65.1184 C   0  0  0  0  0  0  0  0  0  0  0  0
  -38.4188   57.9950   63.6439 C   0  0  0  0  0  0  0  0  0  0  0  0
  -37.5147   58.8411   62.7668 N   0  0  0  0  0  0  0  0  0  0  0  0
  -37.6684   58.4559   61.3305 C   0  0  0  0  0  0  0  0  0  0  0  0
  -36.0981   58.6134   63.1815 C   0  0  0  0  0  0  0  0  0  0  0  0
  -37.8489   60.2979   62.9166 C   0  0  0  0  0  0  0  0  0  0  0  0
  -42.9741   56.8183   65.4467 C   0  0  0  0  0  0  0  0  0  0  0  0
  -44.4351   57.2518   65.4619 C   0  0  0  0  0  0  0  0  0  0  0  0
  -44.7811   58.2446   66.5583 C   0  0  0  0  0  0  0  0  0  0  0  0
  -44.7641   59.6898   66.0924 C   0  0  0  0  0  0  0  0  0  0  0  0
  -46.0163   60.0794   65.3257 C   0  0  0  0  0  0  0  0  0  0  0  0
  -47.2487   60.0745   66.2025 C   0  0  0  0  0  0  0  0  0  0  0  0
  -48.3561   59.1516   65.7360 C   0  0  0  0  0  0  0  0  0  0  0  0
  -48.1284   58.5656   64.3954 C   0  0  0  0  0  0  0  0  0  0  0  0
  -49.0512   58.3257   63.4868 C   0  0  0  0  0  0  0  0  0  0  0  0
  -50.5123   58.6233   63.5831 C   0  0  0  0  0  0  0  0  0  0  0  0
  -51.0625   59.0104   62.2094 C   0  0  0  0  0  0  0  0  0  0  0  0
  -50.0929   58.8449   61.0484 C   0  0  0  0  0  0  0  0  0  0  0  0
  -50.2297   57.5384   60.2760 C   0  0  0  0  0  0  0  0  0  0  0  0
  -49.2865   57.4350   59.0819 C   0  0  0  0  0  0  0  0  0  0  0  0
  -48.2746   56.3060   59.1968 C   0  0  0  0  0  0  0  0  0  0  0  0
  -47.5529   55.9444   57.9073 C   0  0  0  0  0  0  0  0  0  0  0  0
  -47.5041   57.0803   56.9322 C   0  0  0  0  0  0  0  0  0  0  0  0
 17 16  1  0  0  0
 17 18  1  0  0  0
 17 19  1  0  0  0
 17 20  1  0  0  0
  5  6  1  0  0  0
  5  8  1  0  0  0
  5  4  1  0  0  0
 10  9  1  0  0  0
 10 11  2  0  0  0
 10 14  1  0  0  0
 10 12  1  0  0  0
  8  9  1  0  0  0
 15 16  1  0  0  0
 15 14  1  0  0  0
  3  4  1  0  0  0
  3  2  1  0  0  0
  1  2  2  0  0  0
  2 21  1  0  0  0
 21 22  1  0  0  0
 22 23  1  0  0  0
 23 24  1  0  0  0
 24 25  1  0  0  0
 25 26  1  0  0  0
 26 27  1  0  0  0
 27 28  1  0  0  0
 28 29  2  0  0  0
 29 30  1  0  0  0
 30 31  1  0  0  0
 31 32  1  0  0  0
 32 33  1  0  0  0
 33 34  1  0  0  0
 34 35  1  0  0  0
 35 36  1  0  0  0
 36 37  1  0  0  0
  6  7  1  0  0  0
 12 13  1  0  0  0
M  CHG 1  11  -1
M  END
> <minimizedAffinity>
-7.86607

$$$$



 37 36  0  0  0  0  0  0  0  0999 V2000
  -42.1853   55.4909   65.0085 O   0  0  0  0  0  0  0  0  0  0  0  0
  -42.6625   56.5706   64.7610 C   0  0  0  0  0  0  0  0  0  0  0  0
  -42.0923   57.4793   63.9643 O   0  0  0  0  0  0  0  0  0  0  0  0
  -40.8768   58.1106   64.4236 C   0  0  0  0  0  0  0  0  0  0  0  0
  -41.0522   59.6048   64.5928 C   0  0  0  0  0  0  0  0  0  0  0  0
  -40.7976   60.0037   65.9465 O   0  0  0  0  0  0  0  0  0  0  0  0
  -39.8737   59.8123   66.1716 H   0  0  0  0  0  0  0  0  0  0  0  0
  -40.1710   60.4018   63.6597 C   0  0  0  0  0  0  0  0  0  0  0  0
  -39.9336   59.7016   62.4144 O   0  0  0  0  0  0  0  0  0  0  0  0
  -38.5964   59.1339   61.7321 P   0  0  0  0  0  0  0  0  0  0  0  0
  -38.6249   59.4995   60.2490 O   0  0  0  0  0  0  0  0  0  0  0  0
  -38.5918   57.6596   61.8534 O   0  0  0  0  0  0  0  0  0  0  0  0
  -39.3945   57.2991   61.4452 H   0  0  0  0  0  0  0  0  0  0  0  0
  -37.2493   59.7869   62.4132 O   0  0  0  0  0  0  0  0  0  0  0  0
  -36.6730   59.4105   63.6935 C   0  0  0  0  0  0  0  0  0  0  0  0
  -35.7079   60.4709   64.1629 C   0  0  0  0  0  0  0  0  0  0  0  0
  -36.2525   61.4981   65.1380 N   0  0  0  0  0  0  0  0  0  0  0  0
  -37.3467   60.9054   65.9665 C   0  0  0  0  0  0  0  0  0  0  0  0
  -36.8011   62.6497   64.3613 C   0  0  0  0  0  0  0  0  0  0  0  0
  -35.1639   61.9869   66.0505 C   0  0  0  0  0  0  0  0  0  0  0  0
  -43.9578   57.0907   65.3046 C   0  0  0  0  0  0  0  0  0  0  0  0
  -43.7842   57.9389   66.5587 C   0  0  0  0  0  0  0  0  0  0  0  0
  -44.5509   59.2501   66.5376 C   0  0  0  0  0  0  0  0  0  0  0  0
  -44.8305   59.7643   65.1363 C   0  0  0  0  0  0  0  0  0  0  0  0
  -46.3056   60.0261   64.8851 C   0  0  0  0  0  0  0  0  0  0  0  0
  -47.1747   59.5411   66.0239 C   0  0  0  0  0  0  0  0  0  0  0  0
  -48.0641   58.3618   65.6861 C   0  0  0  0  0  0  0  0  0  0  0  0
  -49.5045   58.6954   65.6080 C   0  0  0  0  0  0  0  0  0  0  0  0
  -50.2418   58.6993   64.5166 C   0  0  0  0  0  0  0  0  0  0  0  0
  -49.8099   58.3333   63.1338 C   0  0  0  0  0  0  0  0  0  0  0  0
  -50.9977   58.4107   62.1732 C   0  0  0  0  0  0  0  0  0  0  0  0
  -50.7782   57.7678   60.8117 C   0  0  0  0  0  0  0  0  0  0  0  0
  -49.5219   56.9127   60.6981 C   0  0  0  0  0  0  0  0  0  0  0  0
  -48.8851   56.9467   59.3126 C   0  0  0  0  0  0  0  0  0  0  0  0
  -47.7534   55.9471   59.1341 C   0  0  0  0  0  0  0  0  0  0  0  0
  -47.0526   55.9906   57.7846 C   0  0  0  0  0  0  0  0  0  0  0  0
  -47.5722   57.0791   56.8964 C   0  0  0  0  0  0  0  0  0  0  0  0
 17 16  1  0  0  0
 17 18  1  0  0  0
 17 19  1  0  0  0
 17 20  1  0  0  0
  5  6  1  0  0  0
  5  8  1  0  0  0
  5  4  1  0  0  0
 10  9  1  0  0  0
 10 11  2  0  0  0
 10 14  1  0  0  0
 10 12  1  0  0  0
  8  9  1  0  0  0
 15 16  1  0  0  0
 15 14  1  0  0  0
  3  4  1  0  0  0
  3  2  1  0  0  0
  1  2  2  0  0  0
  2 21  1  0  0  0
 21 22  1  0  0  0
 22 23  1  0  0  0
 23 24  1  0  0  0
 24 25  1  0  0  0
 25 26  1  0  0  0
 26 27  1  0  0  0
 27 28  1  0  0  0
 28 29  2  0  0  0
 29 30  1  0  0  0
 30 31  1  0  0  0
 31 32  1  0  0  0
 32 33  1  0  0  0
 33 34  1  0  0  0
 34 35  1  0  0  0
 35 36  1  0  0  0
 36 37  1  0  0  0
  6  7  1  0  0  0
 12 13  1  0  0  0
M  CHG 1  11  -1
M  END
> <minimizedAffinity>
-7.84434

$$$$



 37 36  0  0  0  0  0  0  0  0999 V2000
  -41.3923   56.6011   62.1618 O   0  0  0  0  0  0  0  0  0  0  0  0
  -41.9243   57.6696   61.9892 C   0  0  0  0  0  0  0  0  0  0  0  0
  -41.5799   58.5341   61.0302 O   0  0  0  0  0  0  0  0  0  0  0  0
  -40.7347   59.6467   61.3973 C   0  0  0  0  0  0  0  0  0  0  0  0
  -39.3232   59.1972   61.7102 C   0  0  0  0  0  0  0  0  0  0  0  0
  -38.6607   58.7205   60.5311 O   0  0  0  0  0  0  0  0  0  0  0  0
  -38.5787   59.4448   59.8911 H   0  0  0  0  0  0  0  0  0  0  0  0
  -38.4943   60.2886   62.3460 C   0  0  0  0  0  0  0  0  0  0  0  0
  -38.5367   60.2234   63.7921 O   0  0  0  0  0  0  0  0  0  0  0  0
  -37.7763   61.0567   64.9337 P   0  0  0  0  0  0  0  0  0  0  0  0
  -38.7352   61.2418   66.1086 O   0  0  0  0  0  0  0  0  0  0  0  0
  -37.4289   62.3900   64.3953 O   0  0  0  0  0  0  0  0  0  0  0  0
  -38.2348   62.8353   64.0899 H   0  0  0  0  0  0  0  0  0  0  0  0
  -36.4351   60.2659   65.4638 O   0  0  0  0  0  0  0  0  0  0  0  0
  -35.0601   60.6989   65.2768 C   0  0  0  0  0  0  0  0  0  0  0  0
  -34.5941   60.3670   63.8809 C   0  0  0  0  0  0  0  0  0  0  0  0
  -34.2703   58.9106   63.6036 N   0  0  0  0  0  0  0  0  0  0  0  0
  -34.0115   58.1790   64.8814 C   0  0  0  0  0  0  0  0  0  0  0  0
  -33.0454   58.8478   62.7515 C   0  0  0  0  0  0  0  0  0  0  0  0
  -35.4101   58.2452   62.8862 C   0  0  0  0  0  0  0  0  0  0  0  0
  -43.0444   58.2235   62.8152 C   0  0  0  0  0  0  0  0  0  0  0  0
  -42.9958   57.7731   64.2703 C   0  0  0  0  0  0  0  0  0  0  0  0
  -44.3220   57.8819   65.0030 C   0  0  0  0  0  0  0  0  0  0  0  0
  -45.3591   58.7026   64.2568 C   0  0  0  0  0  0  0  0  0  0  0  0
  -45.8125   59.9286   65.0306 C   0  0  0  0  0  0  0  0  0  0  0  0
  -47.0746   60.5329   64.4566 C   0  0  0  0  0  0  0  0  0  0  0  0
  -48.2639   60.5300   65.3955 C   0  0  0  0  0  0  0  0  0  0  0  0
  -49.0455   59.2726   65.3752 C   0  0  0  0  0  0  0  0  0  0  0  0
  -50.2100   59.0926   64.7868 C   0  0  0  0  0  0  0  0  0  0  0  0
  -50.9787   60.0895   63.9819 C   0  0  0  0  0  0  0  0  0  0  0  0
  -51.2071   59.5591   62.5655 C   0  0  0  0  0  0  0  0  0  0  0  0
  -50.7325   58.1347   62.3183 C   0  0  0  0  0  0  0  0  0  0  0  0
  -51.1795   57.5274   60.9940 C   0  0  0  0  0  0  0  0  0  0  0  0
  -50.1351   57.6411   59.8883 C   0  0  0  0  0  0  0  0  0  0  0  0
  -48.8913   56.8014   60.1321 C   0  0  0  0  0  0  0  0  0  0  0  0
  -48.2126   56.2639   58.8811 C   0  0  0  0  0  0  0  0  0  0  0  0
  -48.1404   57.2769   57.7801 C   0  0  0  0  0  0  0  0  0  0  0  0
 17 16  1  0  0  0
 17 18  1  0  0  0
 17 19  1  0  0  0
 17 20  1  0  0  0
  5  6  1  0  0  0
  5  8  1  0  0  0
  5  4  1  0  0  0
 10  9  1  0  0  0
 10 11  2  0  0  0
 10 14  1  0  0  0
 10 12  1  0  0  0
  8  9  1  0  0  0
 15 16  1  0  0  0
 15 14  1  0  0  0
  3  4  1  0  0  0
  3  2  1  0  0  0
  1  2  2  0  0  0
  2 21  1  0  0  0
 21 22  1  0  0  0
 22 23  1  0  0  0
 23 24  1  0  0  0
 24 25  1  0  0  0
 25 26  1  0  0  0
 26 27  1  0  0  0
 27 28  1  0  0  0
 28 29  2  0  0  0
 29 30  1  0  0  0
 30 31  1  0  0  0
 31 32  1  0  0  0
 32 33  1  0  0  0
 33 34  1  0  0  0
 34 35  1  0  0  0
 35 36  1  0  0  0
 36 37  1  0  0  0
  6  7  1  0  0  0
 12 13  1  0  0  0
M  CHG 1  11  -1
M  END
> <minimizedAffinity>
-7.64553

$$$$



 37 36  0  0  0  0  0  0  0  0999 V2000
  -41.4175   56.0401   60.8264 O   0  0  0  0  0  0  0  0  0  0  0  0
  -41.1688   56.8904   61.6448 C   0  0  0  0  0  0  0  0  0  0  0  0
  -40.3211   57.9033   61.4420 O   0  0  0  0  0  0  0  0  0  0  0  0
  -38.9114   57.5973   61.3648 C   0  0  0  0  0  0  0  0  0  0  0  0
  -38.0714   58.8528   61.2635 C   0  0  0  0  0  0  0  0  0  0  0  0
  -38.8696   59.9765   60.8681 O   0  0  0  0  0  0  0  0  0  0  0  0
  -39.5390   60.1527   61.5476 H   0  0  0  0  0  0  0  0  0  0  0  0
  -37.3526   59.1755   62.5525 C   0  0  0  0  0  0  0  0  0  0  0  0
  -38.1788   58.9071   63.7113 O   0  0  0  0  0  0  0  0  0  0  0  0
  -39.2660   59.7932   64.4914 P   0  0  0  0  0  0  0  0  0  0  0  0
  -39.8899   58.9288   65.5858 O   0  0  0  0  0  0  0  0  0  0  0  0
  -40.3280   60.1863   63.5396 O   0  0  0  0  0  0  0  0  0  0  0  0
  -40.7174   59.3913   63.1432 H   0  0  0  0  0  0  0  0  0  0  0  0
  -38.5778   61.1148   65.1877 O   0  0  0  0  0  0  0  0  0  0  0  0
  -37.3702   61.1210   65.9967 C   0  0  0  0  0  0  0  0  0  0  0  0
  -36.4705   62.2589   65.5819 C   0  0  0  0  0  0  0  0  0  0  0  0
  -35.0274   61.9038   65.2755 N   0  0  0  0  0  0  0  0  0  0  0  0
  -34.8705   60.4236   65.1354 C   0  0  0  0  0  0  0  0  0  0  0  0
  -34.1694   62.3785   66.4020 C   0  0  0  0  0  0  0  0  0  0  0  0
  -34.5828   62.5613   64.0001 C   0  0  0  0  0  0  0  0  0  0  0  0
  -41.7456   56.9595   63.0255 C   0  0  0  0  0  0  0  0  0  0  0  0
  -42.8712   57.9788   63.1547 C   0  0  0  0  0  0  0  0  0  0  0  0
  -43.2496   58.3139   64.5872 C   0  0  0  0  0  0  0  0  0  0  0  0
  -43.7861   59.7244   64.7564 C   0  0  0  0  0  0  0  0  0  0  0  0
  -44.5220   60.2293   63.5271 C   0  0  0  0  0  0  0  0  0  0  0  0
  -45.6756   61.1398   63.8848 C   0  0  0  0  0  0  0  0  0  0  0  0
  -46.8476   60.4478   64.5506 C   0  0  0  0  0  0  0  0  0  0  0  0
  -47.1337   59.0970   64.0161 C   0  0  0  0  0  0  0  0  0  0  0  0
  -48.0230   58.2481   64.4887 C   0  0  0  0  0  0  0  0  0  0  0  0
  -48.9619   58.4662   65.6303 C   0  0  0  0  0  0  0  0  0  0  0  0
  -50.3960   58.5982   65.1149 C   0  0  0  0  0  0  0  0  0  0  0  0
  -50.7021   59.8842   64.3611 C   0  0  0  0  0  0  0  0  0  0  0  0
  -51.3782   59.6929   63.0089 C   0  0  0  0  0  0  0  0  0  0  0  0
  -50.4092   59.3258   61.8898 C   0  0  0  0  0  0  0  0  0  0  0  0
  -50.6177   57.9262   61.3337 C   0  0  0  0  0  0  0  0  0  0  0  0
  -49.7941   57.5856   60.1008 C   0  0  0  0  0  0  0  0  0  0  0  0
  -49.1801   56.2213   60.1726 C   0  0  0  0  0  0  0  0  0  0  0  0
 17 16  1  0  0  0
 17 18  1  0  0  0
 17 19  1  0  0  0
 17 20  1  0  0  0
  5  6  1  0  0  0
  5  8  1  0  0  0
  5  4  1  0  0  0
 10  9  1  0  0  0
 10 11  2  0  0  0
 10 14  1  0  0  0
 10 12  1  0  0  0
  8  9  1  0  0  0
 15 16  1  0  0  0
 15 14  1  0  0  0
  3  4  1  0  0  0
  3  2  1  0  0  0
  1  2  2  0  0  0
  2 21  1  0  0  0
 21 22  1  0  0  0
 22 23  1  0  0  0
 23 24  1  0  0  0
 24 25  1  0  0  0
 25 26  1  0  0  0
 26 27  1  0  0  0
 27 28  1  0  0  0
 28 29  2  0  0  0
 29 30  1  0  0  0
 30 31  1  0  0  0
 31 32  1  0  0  0
 32 33  1  0  0  0
 33 34  1  0  0  0
 34 35  1  0  0  0
 35 36  1  0  0  0
 36 37  1  0  0  0
  6  7  1  0  0  0
 12 13  1  0  0  0
M  CHG 1  11  -1
M  END
> <minimizedAffinity>
-7.62860

$$$$



 37 36  0  0  0  0  0  0  0  0999 V2000
  -41.1296   56.1800   62.0423 O   0  0  0  0  0  0  0  0  0  0  0  0
  -41.6933   57.2423   62.1344 C   0  0  0  0  0  0  0  0  0  0  0  0
  -41.8561   58.0968   61.1200 O   0  0  0  0  0  0  0  0  0  0  0  0
  -40.8007   59.0495   60.8651 C   0  0  0  0  0  0  0  0  0  0  0  0
  -39.5059   58.3619   60.4869 C   0  0  0  0  0  0  0  0  0  0  0  0
  -39.6327   57.6780   59.2329 O   0  0  0  0  0  0  0  0  0  0  0  0
  -39.8127   58.3220   58.5301 H   0  0  0  0  0  0  0  0  0  0  0  0
  -38.3384   59.3185   60.4219 C   0  0  0  0  0  0  0  0  0  0  0  0
  -37.4271   59.1318   61.5319 O   0  0  0  0  0  0  0  0  0  0  0  0
  -37.4988   58.2125   62.8455 P   0  0  0  0  0  0  0  0  0  0  0  0
  -36.0706   57.9267   63.3067 O   0  0  0  0  0  0  0  0  0  0  0  0
  -38.1445   56.9296   62.4913 O   0  0  0  0  0  0  0  0  0  0  0  0
  -37.6496   56.5061   61.7726 H   0  0  0  0  0  0  0  0  0  0  0  0
  -38.3084   58.9650   64.0634 O   0  0  0  0  0  0  0  0  0  0  0  0
  -37.7523   59.3401   65.3529 C   0  0  0  0  0  0  0  0  0  0  0  0
  -37.8883   60.8274   65.5667 C   0  0  0  0  0  0  0  0  0  0  0  0
  -36.7470   61.6910   65.0626 N   0  0  0  0  0  0  0  0  0  0  0  0
  -35.4728   60.9095   65.0319 C   0  0  0  0  0  0  0  0  0  0  0  0
  -36.5823   62.8520   65.9875 C   0  0  0  0  0  0  0  0  0  0  0  0
  -37.0399   62.1953   63.6783 C   0  0  0  0  0  0  0  0  0  0  0  0
  -42.2942   57.7985   63.3886 C   0  0  0  0  0  0  0  0  0  0  0  0
  -42.1416   56.8717   64.5888 C   0  0  0  0  0  0  0  0  0  0  0  0
  -43.3131   56.9024   65.5553 C   0  0  0  0  0  0  0  0  0  0  0  0
  -44.5174   57.6577   65.0213 C   0  0  0  0  0  0  0  0  0  0  0  0
  -44.7379   58.9893   65.7183 C   0  0  0  0  0  0  0  0  0  0  0  0
  -45.2049   60.0646   64.7628 C   0  0  0  0  0  0  0  0  0  0  0  0
  -46.7086   60.2330   64.6824 C   0  0  0  0  0  0  0  0  0  0  0  0
  -47.4282   59.0205   64.2305 C   0  0  0  0  0  0  0  0  0  0  0  0
  -48.5494   58.9960   63.5399 C   0  0  0  0  0  0  0  0  0  0  0  0
  -49.3193   60.1690   63.0262 C   0  0  0  0  0  0  0  0  0  0  0  0
  -50.3457   59.7116   61.9885 C   0  0  0  0  0  0  0  0  0  0  0  0
  -50.8566   58.2885   62.1600 C   0  0  0  0  0  0  0  0  0  0  0  0
  -51.0214   57.5028   60.8647 C   0  0  0  0  0  0  0  0  0  0  0  0
  -49.7093   56.9539   60.3139 C   0  0  0  0  0  0  0  0  0  0  0  0
  -49.3512   57.4901   58.9370 C   0  0  0  0  0  0  0  0  0  0  0  0
  -48.0520   56.9601   58.3492 C   0  0  0  0  0  0  0  0  0  0  0  0
  -48.1790   56.5877   56.9039 C   0  0  0  0  0  0  0  0  0  0  0  0
 17 16  1  0  0  0
 17 18  1  0  0  0
 17 19  1  0  0  0
 17 20  1  0  0  0
  5  6  1  0  0  0
  5  8  1  0  0  0
  5  4  1  0  0  0
 10  9  1  0  0  0
 10 11  2  0  0  0
 10 14  1  0  0  0
 10 12  1  0  0  0
  8  9  1  0  0  0
 15 16  1  0  0  0
 15 14  1  0  0  0
  3  4  1  0  0  0
  3  2  1  0  0  0
  1  2  2  0  0  0
  2 21  1  0  0  0
 21 22  1  0  0  0
 22 23  1  0  0  0
 23 24  1  0  0  0
 24 25  1  0  0  0
 25 26  1  0  0  0
 26 27  1  0  0  0
 27 28  1  0  0  0
 28 29  2  0  0  0
 29 30  1  0  0  0
 30 31  1  0  0  0
 31 32  1  0  0  0
 32 33  1  0  0  0
 33 34  1  0  0  0
 34 35  1  0  0  0
 35 36  1  0  0  0
 36 37  1  0  0  0
  6  7  1  0  0  0
 12 13  1  0  0  0
M  CHG 1  11  -1
M  END
> <minimizedAffinity>
-7.21093

$$$$



 37 36  0  0  0  0  0  0  0  0999 V2000
  -39.8238   56.6304   62.0921 O   0  0  0  0  0  0  0  0  0  0  0  0
  -40.9126   57.0577   62.3864 C   0  0  0  0  0  0  0  0  0  0  0  0
  -41.5143   58.0748   61.7627 O   0  0  0  0  0  0  0  0  0  0  0  0
  -40.8128   58.7039   60.6678 C   0  0  0  0  0  0  0  0  0  0  0  0
  -40.1897   60.0192   61.0849 C   0  0  0  0  0  0  0  0  0  0  0  0
  -40.7252   60.4692   62.3367 O   0  0  0  0  0  0  0  0  0  0  0  0
  -40.5016   59.8310   63.0322 H   0  0  0  0  0  0  0  0  0  0  0  0
  -38.6839   59.9434   61.1805 C   0  0  0  0  0  0  0  0  0  0  0  0
  -38.2346   59.8754   62.5556 O   0  0  0  0  0  0  0  0  0  0  0  0
  -37.0208   59.0950   63.2581 P   0  0  0  0  0  0  0  0  0  0  0  0
  -36.7378   57.8281   62.4525 O   0  0  0  0  0  0  0  0  0  0  0  0
  -37.4365   58.7021   64.6223 O   0  0  0  0  0  0  0  0  0  0  0  0
  -38.2409   58.1623   64.5723 H   0  0  0  0  0  0  0  0  0  0  0  0
  -35.6571   60.0137   63.2977 O   0  0  0  0  0  0  0  0  0  0  0  0
  -34.8630   60.3108   64.4784 C   0  0  0  0  0  0  0  0  0  0  0  0
  -34.4386   61.7585   64.4706 C   0  0  0  0  0  0  0  0  0  0  0  0
  -34.9289   62.6140   65.6241 N   0  0  0  0  0  0  0  0  0  0  0  0
  -33.8236   62.8607   66.6001 C   0  0  0  0  0  0  0  0  0  0  0  0
  -36.0365   61.8910   66.3175 C   0  0  0  0  0  0  0  0  0  0  0  0
  -35.4356   63.9357   65.1212 C   0  0  0  0  0  0  0  0  0  0  0  0
  -41.7736   56.5433   63.4990 C   0  0  0  0  0  0  0  0  0  0  0  0
  -41.6200   57.3362   64.7915 C   0  0  0  0  0  0  0  0  0  0  0  0
  -42.6522   58.4352   64.9770 C   0  0  0  0  0  0  0  0  0  0  0  0
  -44.0626   58.0078   64.6109 C   0  0  0  0  0  0  0  0  0  0  0  0
  -44.7829   57.3062   65.7495 C   0  0  0  0  0  0  0  0  0  0  0  0
  -45.6470   58.2546   66.5503 C   0  0  0  0  0  0  0  0  0  0  0  0
  -47.1325   58.1499   66.2705 C   0  0  0  0  0  0  0  0  0  0  0  0
  -47.8571   59.4373   66.3686 C   0  0  0  0  0  0  0  0  0  0  0  0
  -49.0435   59.7004   65.8606 C   0  0  0  0  0  0  0  0  0  0  0  0
  -49.9351   58.7612   65.1152 C   0  0  0  0  0  0  0  0  0  0  0  0
  -50.9462   59.5471   64.2788 C   0  0  0  0  0  0  0  0  0  0  0  0
  -50.5363   59.8087   62.8369 C   0  0  0  0  0  0  0  0  0  0  0  0
  -49.3680   58.9677   62.3365 C   0  0  0  0  0  0  0  0  0  0  0  0
  -49.7843   57.5969   61.8133 C   0  0  0  0  0  0  0  0  0  0  0  0
  -50.7513   57.6565   60.6415 C   0  0  0  0  0  0  0  0  0  0  0  0
  -50.1391   58.0713   59.3120 C   0  0  0  0  0  0  0  0  0  0  0  0
  -48.9386   57.2535   58.9464 C   0  0  0  0  0  0  0  0  0  0  0  0
 17 16  1  0  0  0
 17 18  1  0  0  0
 17 19  1  0  0  0
 17 20  1  0  0  0
  5  6  1  0  0  0
  5  8  1  0  0  0
  5  4  1  0  0  0
 10  9  1  0  0  0
 10 11  2  0  0  0
 10 14  1  0  0  0
 10 12  1  0  0  0
  8  9  1  0  0  0
 15 16  1  0  0  0
 15 14  1  0  0  0
  3  4  1  0  0  0
  3  2  1  0  0  0
  1  2  2  0  0  0
  2 21  1  0  0  0
 21 22  1  0  0  0
 22 23  1  0  0  0
 23 24  1  0  0  0
 24 25  1  0  0  0
 25 26  1  0  0  0
 26 27  1  0  0  0
 27 28  1  0  0  0
 28 29  2  0  0  0
 29 30  1  0  0  0
 30 31  1  0  0  0
 31 32  1  0  0  0
 32 33  1  0  0  0
 33 34  1  0  0  0
 34 35  1  0  0  0
 35 36  1  0  0  0
 36 37  1  0  0  0
  6  7  1  0  0  0
 12 13  1  0  0  0
M  CHG 1  11  -1
M  END
> <minimizedAffinity>
-7.06828

$$$$



 37 36  0  0  0  0  0  0  0  0999 V2000
  -39.0908   57.0620   62.0943 O   0  0  0  0  0  0  0  0  0  0  0  0
  -40.1377   57.5357   62.4605 C   0  0  0  0  0  0  0  0  0  0  0  0
  -40.3448   58.8416   62.6539 O   0  0  0  0  0  0  0  0  0  0  0  0
  -39.2951   59.7552   62.2663 C   0  0  0  0  0  0  0  0  0  0  0  0
  -39.2907   61.0000   63.1281 C   0  0  0  0  0  0  0  0  0  0  0  0
  -39.7918   60.7190   64.4420 O   0  0  0  0  0  0  0  0  0  0  0  0
  -39.2065   60.0828   64.8821 H   0  0  0  0  0  0  0  0  0  0  0  0
  -37.9200   61.6260   63.2362 C   0  0  0  0  0  0  0  0  0  0  0  0
  -37.4118   61.5782   64.5914 O   0  0  0  0  0  0  0  0  0  0  0  0
  -36.4809   62.5796   65.4320 P   0  0  0  0  0  0  0  0  0  0  0  0
  -36.6006   62.2148   66.9108 O   0  0  0  0  0  0  0  0  0  0  0  0
  -36.9804   63.9595   65.2458 O   0  0  0  0  0  0  0  0  0  0  0  0
  -37.9104   64.0062   65.5178 H   0  0  0  0  0  0  0  0  0  0  0  0
  -34.9039   62.4564   64.9817 O   0  0  0  0  0  0  0  0  0  0  0  0
  -34.3446   61.4422   64.1033 C   0  0  0  0  0  0  0  0  0  0  0  0
  -34.7499   60.0663   64.5709 C   0  0  0  0  0  0  0  0  0  0  0  0
  -34.1869   58.8929   63.7906 N   0  0  0  0  0  0  0  0  0  0  0  0
  -35.2346   58.3040   62.9015 C   0  0  0  0  0  0  0  0  0  0  0  0
  -33.7300   57.8513   64.7584 C   0  0  0  0  0  0  0  0  0  0  0  0
  -33.0247   59.3313   62.9460 C   0  0  0  0  0  0  0  0  0  0  0  0
  -41.3781   56.7571   62.7755 C   0  0  0  0  0  0  0  0  0  0  0  0
  -41.3949   56.2052   64.1959 C   0  0  0  0  0  0  0  0  0  0  0  0
  -42.2497   57.0024   65.1662 C   0  0  0  0  0  0  0  0  0  0  0  0
  -43.2062   57.9624   64.4809 C   0  0  0  0  0  0  0  0  0  0  0  0
  -44.6279   57.8568   65.0054 C   0  0  0  0  0  0  0  0  0  0  0  0
  -45.3158   59.2023   65.0685 C   0  0  0  0  0  0  0  0  0  0  0  0
  -46.4643   59.3743   64.0952 C   0  0  0  0  0  0  0  0  0  0  0  0
  -47.2366   60.6228   64.2881 C   0  0  0  0  0  0  0  0  0  0  0  0
  -48.2810   60.7748   65.0760 C   0  0  0  0  0  0  0  0  0  0  0  0
  -48.8919   59.7486   65.9739 C   0  0  0  0  0  0  0  0  0  0  0  0
  -50.3209   59.4393   65.5245 C   0  0  0  0  0  0  0  0  0  0  0  0
  -50.4402   58.5262   64.3131 C   0  0  0  0  0  0  0  0  0  0  0  0
  -50.9404   59.2033   63.0428 C   0  0  0  0  0  0  0  0  0  0  0  0
  -49.9284   59.1816   61.9019 C   0  0  0  0  0  0  0  0  0  0  0  0
  -49.8762   57.8584   61.1548 C   0  0  0  0  0  0  0  0  0  0  0  0
  -50.1168   57.9470   59.6553 C   0  0  0  0  0  0  0  0  0  0  0  0
  -48.9553   57.4488   58.8514 C   0  0  0  0  0  0  0  0  0  0  0  0
 17 16  1  0  0  0
 17 18  1  0  0  0
 17 19  1  0  0  0
 17 20  1  0  0  0
  5  6  1  0  0  0
  5  8  1  0  0  0
  5  4  1  0  0  0
 10  9  1  0  0  0
 10 11  2  0  0  0
 10 14  1  0  0  0
 10 12  1  0  0  0
  8  9  1  0  0  0
 15 16  1  0  0  0
 15 14  1  0  0  0
  3  4  1  0  0  0
  3  2  1  0  0  0
  1  2  2  0  0  0
  2 21  1  0  0  0
 21 22  1  0  0  0
 22 23  1  0  0  0
 23 24  1  0  0  0
 24 25  1  0  0  0
 25 26  1  0  0  0
 26 27  1  0  0  0
 27 28  1  0  0  0
 28 29  2  0  0  0
 29 30  1  0  0  0
 30 31  1  0  0  0
 31 32  1  0  0  0
 32 33  1  0  0  0
 33 34  1  0  0  0
 34 35  1  0  0  0
 35 36  1  0  0  0
 36 37  1  0  0  0
  6  7  1  0  0  0
 12 13  1  0  0  0
M  CHG 1  11  -1
M  END
> <minimizedAffinity>
-7.04109

$$$$



 37 36  0  0  0  0  0  0  0  0999 V2000
  -39.2811   56.8507   61.6523 O   0  0  0  0  0  0  0  0  0  0  0  0
  -40.3980   57.2109   61.9306 C   0  0  0  0  0  0  0  0  0  0  0  0
  -41.0095   58.2606   61.3739 O   0  0  0  0  0  0  0  0  0  0  0  0
  -40.1855   59.2570   60.7296 C   0  0  0  0  0  0  0  0  0  0  0  0
  -39.9954   60.4771   61.6057 C   0  0  0  0  0  0  0  0  0  0  0  0
  -41.0863   60.6271   62.5243 O   0  0  0  0  0  0  0  0  0  0  0  0
  -41.1117   59.8647   63.1235 H   0  0  0  0  0  0  0  0  0  0  0  0
  -38.6939   60.4438   62.3722 C   0  0  0  0  0  0  0  0  0  0  0  0
  -38.9087   60.5308   63.8017 O   0  0  0  0  0  0  0  0  0  0  0  0
  -37.9601   60.2172   65.0578 P   0  0  0  0  0  0  0  0  0  0  0  0
  -38.2109   58.7757   65.4973 O   0  0  0  0  0  0  0  0  0  0  0  0
  -38.3319   61.1196   66.1694 O   0  0  0  0  0  0  0  0  0  0  0  0
  -39.2716   61.0030   66.3800 H   0  0  0  0  0  0  0  0  0  0  0  0
  -36.3709   60.3836   64.6681 O   0  0  0  0  0  0  0  0  0  0  0  0
  -35.3608   61.0505   65.4731 C   0  0  0  0  0  0  0  0  0  0  0  0
  -34.7170   62.1639   64.6845 C   0  0  0  0  0  0  0  0  0  0  0  0
  -35.3636   63.5324   64.7936 N   0  0  0  0  0  0  0  0  0  0  0  0
  -34.3423   64.6099   64.6174 C   0  0  0  0  0  0  0  0  0  0  0  0
  -35.9785   63.6632   66.1483 C   0  0  0  0  0  0  0  0  0  0  0  0
  -36.4277   63.6970   63.7462 C   0  0  0  0  0  0  0  0  0  0  0  0
  -41.2885   56.5657   62.9476 C   0  0  0  0  0  0  0  0  0  0  0  0
  -40.9439   56.9560   64.3799 C   0  0  0  0  0  0  0  0  0  0  0  0
  -41.7183   58.1527   64.9051 C   0  0  0  0  0  0  0  0  0  0  0  0
  -43.2029   58.0973   64.5907 C   0  0  0  0  0  0  0  0  0  0  0  0
  -43.9144   56.9535   65.2928 C   0  0  0  0  0  0  0  0  0  0  0  0
  -44.7135   57.4243   66.4876 C   0  0  0  0  0  0  0  0  0  0  0  0
  -46.2163   57.3128   66.3302 C   0  0  0  0  0  0  0  0  0  0  0  0
  -46.9731   58.4135   66.9688 C   0  0  0  0  0  0  0  0  0  0  0  0
  -48.2293   58.7307   66.7318 C   0  0  0  0  0  0  0  0  0  0  0  0
  -49.1771   58.0370   65.8081 C   0  0  0  0  0  0  0  0  0  0  0  0
  -50.4705   58.8431   65.6780 C   0  0  0  0  0  0  0  0  0  0  0  0
  -50.4749   59.8957   64.5792 C   0  0  0  0  0  0  0  0  0  0  0  0
  -49.6760   59.5305   63.3339 C   0  0  0  0  0  0  0  0  0  0  0  0
  -48.6058   60.5560   62.9743 C   0  0  0  0  0  0  0  0  0  0  0  0
  -47.7888   61.0317   64.1650 C   0  0  0  0  0  0  0  0  0  0  0  0
  -46.3376   60.5753   64.1835 C   0  0  0  0  0  0  0  0  0  0  0  0
  -45.4112   61.5628   63.5431 C   0  0  0  0  0  0  0  0  0  0  0  0
 17 16  1  0  0  0
 17 18  1  0  0  0
 17 19  1  0  0  0
 17 20  1  0  0  0
  5  6  1  0  0  0
  5  8  1  0  0  0
  5  4  1  0  0  0
 10  9  1  0  0  0
 10 11  2  0  0  0
 10 14  1  0  0  0
 10 12  1  0  0  0
  8  9  1  0  0  0
 15 16  1  0  0  0
 15 14  1  0  0  0
  3  4  1  0  0  0
  3  2  1  0  0  0
  1  2  2  0  0  0
  2 21  1  0  0  0
 21 22  1  0  0  0
 22 23  1  0  0  0
 23 24  1  0  0  0
 24 25  1  0  0  0
 25 26  1  0  0  0
 26 27  1  0  0  0
 27 28  1  0  0  0
 28 29  2  0  0  0
 29 30  1  0  0  0
 30 31  1  0  0  0
 31 32  1  0  0  0
 32 33  1  0  0  0
 33 34  1  0  0  0
 34 35  1  0  0  0
 35 36  1  0  0  0
 36 37  1  0  0  0
  6  7  1  0  0  0
 12 13  1  0  0  0
M  CHG 1  11  -1
M  END
> <minimizedAffinity>
-6.58744

$$$$
