


 59 58  0  0  0  0  0  0  0  0999 V2000
  -33.5157   65.5477   62.2073 C   0  0  0  0  0  0  0  0  0  0  0  0
  -34.0671   64.5827   63.1414 N   0  0  0  0  0  0  0  0  0  0  0  0
  -36.1072   64.2448   62.0661 O   0  0  0  0  0  0  0  0  0  0  0  0
  -35.3937   63.9764   62.9821 C   0  0  0  0  0  0  0  0  0  0  0  0
  -33.5241   64.3223   63.9201 H   0  0  0  0  0  0  0  0  0  0  0  0
  -35.8425   62.9620   64.0502 C   0  0  0  0  0  0  0  0  0  0  0  0
  -35.1069   61.6391   63.7729 C   0  0  0  0  0  0  0  0  0  0  0  0
  -35.3903   60.6373   64.9238 C   0  0  0  0  0  0  0  0  0  0  0  0
  -36.8086   60.8990   65.4741 C   0  0  0  0  0  0  0  0  0  0  0  0
  -37.6701   59.6265   65.3044 C   0  0  0  0  0  0  0  0  0  0  0  0
  -39.1230   59.9077   65.7446 C   0  0  0  0  0  0  0  0  0  0  0  0
  -40.0607   59.6426   64.5426 C   0  0  0  0  0  0  0  0  0  0  0  0
  -41.0609   58.5262   64.9074 C   0  0  0  0  0  0  0  0  0  0  0  0
  -42.4065   58.7914   64.2008 C   0  0  0  0  0  0  0  0  0  0  0  0
  -43.3695   57.6104   64.4457 C   0  0  0  0  0  0  0  0  0  0  0  0
  -44.7159   57.9338   63.7759 C   0  0  0  0  0  0  0  0  0  0  0  0
  -45.8702   57.9314   64.7996 C   0  0  0  0  0  0  0  0  0  0  0  0
  -47.1232   58.4900   64.0885 C   0  0  0  0  0  0  0  0  0  0  0  0
  -48.3613   58.3720   64.9963 C   0  0  0  0  0  0  0  0  0  0  0  0
  -49.5779   58.3165   64.4355 C   0  0  0  0  0  0  0  0  0  0  0  0
  -49.7134   58.3682   62.9044 C   0  0  0  0  0  0  0  0  0  0  0  0
  -51.2051   58.4480   62.5208 C   0  0  0  0  0  0  0  0  0  0  0  0
  -51.4849   57.6430   61.2362 C   0  0  0  0  0  0  0  0  0  0  0  0
  -50.1984   56.9808   60.7101 C   0  0  0  0  0  0  0  0  0  0  0  0
  -49.9446   57.3854   59.2543 C   0  0  0  0  0  0  0  0  0  0  0  0
  -48.4398   57.4191   58.9722 C   0  0  0  0  0  0  0  0  0  0  0  0
  -48.1705   56.8706   57.5754 C   0  0  0  0  0  0  0  0  0  0  0  0
  -46.7978   57.3045   57.0705 C   0  0  0  0  0  0  0  0  0  0  0  0
  -32.0095   65.2910   62.0856 C   0  0  0  0  0  0  0  0  0  0  0  0
  -31.5686   65.6181   60.8045 O   0  0  0  0  0  0  0  0  0  0  0  0
  -32.0388   65.0754   60.1523 H   0  0  0  0  0  0  0  0  0  0  0  0
  -31.7426   63.8082   62.3646 C   0  0  0  0  0  0  0  0  0  0  0  0
  -30.7155   63.4214   63.1326 C   0  0  0  0  0  0  0  0  0  0  0  0
  -30.5031   61.9119   63.3734 C   0  0  0  0  0  0  0  0  0  0  0  0
  -30.0215   61.2313   62.0660 C   0  0  0  0  0  0  0  0  0  0  0  0
  -30.7053   59.8433   61.9548 C   0  0  0  0  0  0  0  0  0  0  0  0
  -32.2231   59.9769   62.2479 C   0  0  0  0  0  0  0  0  0  0  0  0
  -32.7745   58.7006   62.9240 C   0  0  0  0  0  0  0  0  0  0  0  0
  -33.7326   57.9817   61.9463 C   0  0  0  0  0  0  0  0  0  0  0  0
  -35.0115   57.5562   62.6905 C   0  0  0  0  0  0  0  0  0  0  0  0
  -36.2096   58.3287   62.1185 C   0  0  0  0  0  0  0  0  0  0  0  0
  -37.4915   57.5140   62.3059 C   0  0  0  0  0  0  0  0  0  0  0  0
  -38.5736   58.0831   61.3896 C   0  0  0  0  0  0  0  0  0  0  0  0
  -39.8754   57.3149   61.6128 C   0  0  0  0  0  0  0  0  0  0  0  0
  -41.0069   57.9687   60.8193 C   0  0  0  0  0  0  0  0  0  0  0  0
  -42.2053   57.0178   60.7870 C   0  0  0  0  0  0  0  0  0  0  0  0
  -33.7675   66.9757   62.6996 C   0  0  0  0  0  0  0  0  0  0  0  0
  -33.2490   67.1044   64.0114 O   0  0  0  0  0  0  0  0  0  0  0  0
  -32.1104   68.2874   64.2842 P   0  0  0  0  0  0  0  0  0  0  0  0
  -31.1303   67.8025   65.3326 O   0  0  0  0  0  0  0  0  0  0  0  0
  -31.3759   68.5840   62.9987 O   0  0  0  0  0  0  0  0  0  0  0  0
  -30.9277   67.7811   62.6898 H   0  0  0  0  0  0  0  0  0  0  0  0
  -32.8909   69.6595   64.8349 O   0  0  0  0  0  0  0  0  0  0  0  0
  -33.5019   70.5578   63.9103 C   0  0  0  0  0  0  0  0  0  0  0  0
  -33.2898   72.0098   64.4017 C   0  0  0  0  0  0  0  0  0  0  0  0
  -34.4571   72.8756   64.1834 N   0  0  0  0  0  0  0  0  0  0  0  0
  -35.2934   72.4027   63.0919 C   0  0  0  0  0  0  0  0  0  0  0  0
  -35.2469   72.9342   65.3989 C   0  0  0  0  0  0  0  0  0  0  0  0
  -33.9798   74.2098   63.8752 C   0  0  0  0  0  0  0  0  0  0  0  0
  2  1  1  0  0  0
  2  4  1  0  0  0
 29 30  1  0  0  0
 29 32  1  0  0  0
 29  1  1  0  0  0
 49 48  1  0  0  0
 49 50  2  0  0  0
 49 53  1  0  0  0
 49 51  1  0  0  0
 32 33  2  0  0  0
 56 55  1  0  0  0
 56 57  1  0  0  0
 56 58  1  0  0  0
 56 59  1  0  0  0
  3  4  2  0  0  0
 33 34  1  0  0  0
 48 47  1  0  0  0
 34 35  1  0  0  0
 35 36  1  0  0  0
 53 54  1  0  0  0
 36 37  1  0  0  0
 37 38  1  0  0  0
 38 39  1  0  0  0
 39 40  1  0  0  0
 40 41  1  0  0  0
 41 42  1  0  0  0
 42 43  1  0  0  0
 43 44  1  0  0  0
 44 45  1  0  0  0
 45 46  1  0  0  0
  1 47  1  0  0  0
  4  6  1  0  0  0
  6  7  1  0  0  0
  7  8  1  0  0  0
  8  9  1  0  0  0
  9 10  1  0  0  0
 10 11  1  0  0  0
 11 12  1  0  0  0
 12 13  1  0  0  0
 13 14  1  0  0  0
 14 15  1  0  0  0
 15 16  1  0  0  0
 16 17  1  0  0  0
 17 18  1  0  0  0
 18 19  1  0  0  0
 19 20  2  0  0  0
 20 21  1  0  0  0
 21 22  1  0  0  0
 22 23  1  0  0  0
 23 24  1  0  0  0
 24 25  1  0  0  0
 25 26  1  0  0  0
 26 27  1  0  0  0
 27 28  1  0  0  0
 54 55  1  0  0  0
  2  5  1  0  0  0
 30 31  1  0  0  0
 51 52  1  0  0  0
M  CHG 1  50  -1
M  END
> <minimizedAffinity>
-7.63598

> <minimizedRMSD>
1.60280

> <CNNscore>
0.3591638803

> <CNNaffinity>
6.8591551781

> <CNN_VS>
2.4635608196

> <CNNaffinity_variance>
0.7969151735

$$$$
