


 78 82  0  0  0  0  0  0  0  0999 V2000
  -40.1349   59.9960   64.1492 C   0  0  0  0  0  0  0  0  0  0  0  0
  -39.2941   58.9062   63.7199 N   0  0  0  0  0  0  0  0  0  0  0  0
  -38.6641   58.8735   62.4883 C   0  0  0  0  0  0  0  0  0  0  0  0
  -38.7291   59.7333   61.6170 O   0  0  0  0  0  0  0  0  0  0  0  0
  -39.1616   58.1477   64.3335 H   0  0  0  0  0  0  0  0  0  0  0  0
  -37.8403   57.6509   62.2551 C   0  0  0  0  0  0  0  0  0  0  0  0
  -36.7437   57.6902   63.2271 N   0  0  0  0  0  0  0  0  0  0  0  0
  -35.6996   57.9507   62.5063 C   0  0  0  0  0  0  0  0  0  0  0  0
  -35.8338   58.0599   61.1635 O   0  0  0  0  0  0  0  0  0  0  0  0
  -37.1717   57.6566   60.8969 C   0  0  0  0  0  0  0  0  0  0  0  0
  -34.3444   58.1493   62.9594 C   0  0  0  0  0  0  0  0  0  0  0  0
  -33.2998   58.1823   62.0248 C   0  0  0  0  0  0  0  0  0  0  0  0
  -31.9827   58.3733   62.4430 C   0  0  0  0  0  0  0  0  0  0  0  0
  -31.6968   58.5322   63.7983 C   0  0  0  0  0  0  0  0  0  0  0  0
  -32.7281   58.5017   64.7371 C   0  0  0  0  0  0  0  0  0  0  0  0
  -34.0460   58.3102   64.3194 C   0  0  0  0  0  0  0  0  0  0  0  0
  -35.0395   58.2825   65.2522 O   0  0  0  0  0  0  0  0  0  0  0  0
  -35.9287   58.1547   64.9859 H   0  0  0  0  0  0  0  0  0  0  0  0
  -39.4536   60.8266   65.2299 C   0  0  0  0  0  0  0  0  0  0  0  0
  -40.0378   61.7034   65.8579 O   0  0  0  0  0  0  0  0  0  0  0  0
  -38.1482   60.4770   65.4064 O   0  0  0  0  0  0  0  0  0  0  0  0
  -37.1859   61.4995   65.1283 C   0  0  0  0  0  0  0  0  0  0  0  0
  -36.5657   61.2242   63.7645 C   0  0  0  0  0  0  0  0  0  0  0  0
  -36.1259   61.4817   66.2292 C   0  0  0  0  0  0  0  0  0  0  0  0
  -35.7079   62.8768   66.6720 C   0  0  0  0  0  0  0  0  0  0  0  0
  -35.9204   63.3201   67.7967 O   0  0  0  0  0  0  0  0  0  0  0  0
  -35.0638   63.5625   65.6517 N   0  0  0  0  0  0  0  0  0  0  0  0
  -34.9437   63.1138   64.7837 H   0  0  0  0  0  0  0  0  0  0  0  0
  -34.5649   64.9004   65.8106 C   0  0  0  0  0  0  0  0  0  0  0  0
  -33.9604   65.3689   64.4969 C   0  0  0  0  0  0  0  0  0  0  0  0
  -34.6384   66.0627   63.7325 O   0  0  0  0  0  0  0  0  0  0  0  0
  -33.6995   65.1060   67.0526 C   0  0  0  0  0  0  0  0  0  0  0  0
  -32.5384   64.1328   67.2420 C   0  0  0  0  0  0  0  0  0  0  0  0
  -31.4182   64.2930   66.2219 C   0  0  0  0  0  0  0  0  0  0  0  0
  -31.8443   63.9402   64.8052 C   0  0  0  0  0  0  0  0  0  0  0  0
  -32.6880   64.9612   64.2050 N   0  0  0  0  0  0  0  0  0  0  0  0
  -32.2121   65.3781   62.9489 O   0  0  0  0  0  0  0  0  0  0  0  0
  -30.5597   65.6238   62.9598 Si  0  0  0  0  0  0  0  0  0  0  0  0
  -30.0474   66.2265   61.2495 C   0  0  0  0  0  0  0  0  0  0  0  0
  -30.7901   67.2177   60.6306 C   0  0  0  0  0  0  0  0  0  0  0  0
  -30.4081   67.6670   59.3661 C   0  0  0  0  0  0  0  0  0  0  0  0
  -29.2896   67.1182   58.7398 C   0  0  0  0  0  0  0  0  0  0  0  0
  -28.5523   66.1204   59.3769 C   0  0  0  0  0  0  0  0  0  0  0  0
  -28.9343   65.6711   60.6415 C   0  0  0  0  0  0  0  0  0  0  0  0
  -29.7275   63.9408   63.0611 C   0  0  0  0  0  0  0  0  0  0  0  0
  -27.7940   62.6081   63.5634 C   0  0  0  0  0  0  0  0  0  0  0  0
  -28.5029   61.4580   63.2186 C   0  0  0  0  0  0  0  0  0  0  0  0
  -29.8281   61.5562   62.7947 C   0  0  0  0  0  0  0  0  0  0  0  0
  -30.4442   62.8054   62.7159 C   0  0  0  0  0  0  0  0  0  0  0  0
  -28.4092   63.8570   63.4845 C   0  0  0  0  0  0  0  0  0  0  0  0
  -30.0097   66.8070   64.2843 C   0  0  0  0  0  0  0  0  0  0  0  0
  -29.2758   66.0432   65.4091 C   0  0  0  0  0  0  0  0  0  0  0  0
  -29.0495   67.8621   63.6918 C   0  0  0  0  0  0  0  0  0  0  0  0
  -31.2314   67.5324   64.8913 C   0  0  0  0  0  0  0  0  0  0  0  0
  -41.4862   59.4803   64.6570 C   0  0  0  0  0  0  0  0  0  0  0  0
  -41.3612   58.6794   65.9582 C   0  0  0  0  0  0  0  0  0  0  0  0
  -42.2984   57.4666   65.9536 C   0  0  0  0  0  0  0  0  0  0  0  0
  -43.4940   57.6458   65.0223 C   0  0  0  0  0  0  0  0  0  0  0  0
  -44.7243   60.0921   65.8448 O   0  0  0  0  0  0  0  0  0  0  0  0
  -45.2671   59.0133   66.0944 C   0  0  0  0  0  0  0  0  0  0  0  0
  -44.7430   57.8033   65.7351 N   0  0  0  0  0  0  0  0  0  0  0  0
  -45.3540   56.5757   66.0161 O   0  0  0  0  0  0  0  0  0  0  0  0
  -46.1847   56.7296   66.4927 H   0  0  0  0  0  0  0  0  0  0  0  0
  -46.5898   58.9878   66.8422 C   0  0  0  0  0  0  0  0  0  0  0  0
  -47.6697   59.8220   66.1544 C   0  0  0  0  0  0  0  0  0  0  0  0
  -47.8397   59.4601   64.6761 C   0  0  0  0  0  0  0  0  0  0  0  0
  -48.5126   58.0948   64.5136 C   0  0  0  0  0  0  0  0  0  0  0  0
  -50.0079   58.1734   64.8327 C   0  0  0  0  0  0  0  0  0  0  0  0
  -50.6571   59.4903   64.3963 C   0  0  0  0  0  0  0  0  0  0  0  0
  -51.1341   59.4791   62.9409 C   0  0  0  0  0  0  0  0  0  0  0  0
  -50.4874   60.5721   62.0830 C   0  0  0  0  0  0  0  0  0  0  0  0
  -49.6244   60.0208   60.9457 C   0  0  0  0  0  0  0  0  0  0  0  0
  -49.4022   58.5069   61.0343 C   0  0  0  0  0  0  0  0  0  0  0  0
  -49.5704   57.7342   59.7223 C   0  0  0  0  0  0  0  0  0  0  0  0
  -49.2819   56.2315   59.7943 C   0  0  0  0  0  0  0  0  0  0  0  0
  -48.1327   55.7890   58.8868 C   0  0  0  0  0  0  0  0  0  0  0  0
  -47.8635   56.8212   57.7916 C   0  0  0  0  0  0  0  0  0  0  0  0
  -47.8828   56.1865   56.4100 C   0  0  0  0  0  0  0  0  0  0  0  0
 59 60  2  0  0  0
 60 64  1  0  0  0
 60 61  1  0  0  0
 64 65  1  0  0  0
 65 66  1  0  0  0
 66 67  1  0  0  0
 67 68  1  0  0  0
 68 69  1  0  0  0
 69 70  1  0  0  0
 70 71  1  0  0  0
 71 72  1  0  0  0
 72 73  1  0  0  0
 73 74  2  0  0  0
 74 75  1  0  0  0
 75 76  1  0  0  0
 76 77  1  0  0  0
 77 78  1  0  0  0
 61 62  1  0  0  0
 61 58  1  0  0  0
 58 57  1  0  0  0
 57 56  1  0  0  0
 56 55  1  0  0  0
 55  1  1  0  0  0
  1  2  1  0  0  0
  1 19  1  0  0  0
  2  3  1  0  0  0
  3  4  2  0  0  0
  3  6  1  0  0  0
  6  7  1  0  0  0
  6 10  1  0  0  0
  7  8  2  0  0  0
  8  9  1  0  0  0
  8 11  1  0  0  0
  9 10  1  0  0  0
 11 12  2  0  0  0
 11 16  1  0  0  0
 12 13  1  0  0  0
 13 14  2  0  0  0
 14 15  1  0  0  0
 15 16  2  0  0  0
 16 17  1  0  0  0
 19 20  2  0  0  0
 19 21  1  0  0  0
 21 22  1  0  0  0
 22 23  1  0  0  0
 22 24  1  0  0  0
 24 25  1  0  0  0
 25 26  2  0  0  0
 25 27  1  0  0  0
 27 29  1  0  0  0
 29 30  1  0  0  0
 29 32  1  0  0  0
 30 31  2  0  0  0
 30 36  1  0  0  0
 32 33  1  0  0  0
 33 34  1  0  0  0
 34 35  1  0  0  0
 35 36  1  0  0  0
 36 37  1  0  0  0
 37 38  1  0  0  0
 38 51  1  0  0  0
 38 45  1  0  0  0
 38 39  1  0  0  0
 51 52  1  0  0  0
 51 53  1  0  0  0
 51 54  1  0  0  0
 45 49  2  0  0  0
 45 50  1  0  0  0
 39 40  2  0  0  0
 39 44  1  0  0  0
 46 47  1  0  0  0
 46 50  2  0  0  0
 47 48  2  0  0  0
 48 49  1  0  0  0
 40 41  1  0  0  0
 41 42  2  0  0  0
 42 43  1  0  0  0
 43 44  2  0  0  0
 62 63  1  0  0  0
  2  5  1  0  0  0
 17 18  1  0  0  0
 27 28  1  0  0  0
M  END
> <minimizedAffinity>
-12.36484

$$$$



 78 82  0  0  0  0  0  0  0  0999 V2000
  -40.0310   60.2668   64.1920 C   0  0  0  0  0  0  0  0  0  0  0  0
  -39.2111   59.1601   63.7656 N   0  0  0  0  0  0  0  0  0  0  0  0
  -38.6630   59.0659   62.4985 C   0  0  0  0  0  0  0  0  0  0  0  0
  -38.7921   59.8785   61.5899 O   0  0  0  0  0  0  0  0  0  0  0  0
  -39.0323   58.4355   64.4077 H   0  0  0  0  0  0  0  0  0  0  0  0
  -37.8460   57.8368   62.2754 C   0  0  0  0  0  0  0  0  0  0  0  0
  -36.7332   57.8920   63.2280 N   0  0  0  0  0  0  0  0  0  0  0  0
  -35.7008   58.1356   62.4849 C   0  0  0  0  0  0  0  0  0  0  0  0
  -35.8572   58.2191   61.1427 O   0  0  0  0  0  0  0  0  0  0  0  0
  -37.2003   57.8143   60.9064 C   0  0  0  0  0  0  0  0  0  0  0  0
  -34.3377   58.3394   62.9113 C   0  0  0  0  0  0  0  0  0  0  0  0
  -33.2982   58.2465   61.9751 C   0  0  0  0  0  0  0  0  0  0  0  0
  -31.9736   58.4403   62.3676 C   0  0  0  0  0  0  0  0  0  0  0  0
  -31.6751   58.7276   63.6988 C   0  0  0  0  0  0  0  0  0  0  0  0
  -32.7012   58.8230   64.6390 C   0  0  0  0  0  0  0  0  0  0  0  0
  -34.0265   58.6288   64.2470 C   0  0  0  0  0  0  0  0  0  0  0  0
  -35.0148   58.7252   65.1808 O   0  0  0  0  0  0  0  0  0  0  0  0
  -35.9089   58.5972   64.9316 H   0  0  0  0  0  0  0  0  0  0  0  0
  -39.3353   61.0853   65.2728 C   0  0  0  0  0  0  0  0  0  0  0  0
  -39.9385   61.8596   66.0082 O   0  0  0  0  0  0  0  0  0  0  0  0
  -37.9936   60.8500   65.3180 O   0  0  0  0  0  0  0  0  0  0  0  0
  -37.1537   61.9723   65.0282 C   0  0  0  0  0  0  0  0  0  0  0  0
  -36.6310   61.8324   63.6043 C   0  0  0  0  0  0  0  0  0  0  0  0
  -36.0057   61.9935   66.0370 C   0  0  0  0  0  0  0  0  0  0  0  0
  -35.4696   63.3945   66.2952 C   0  0  0  0  0  0  0  0  0  0  0  0
  -35.7241   64.0385   67.3087 O   0  0  0  0  0  0  0  0  0  0  0  0
  -34.6673   63.8325   65.2510 N   0  0  0  0  0  0  0  0  0  0  0  0
  -34.5267   63.2353   64.4810 H   0  0  0  0  0  0  0  0  0  0  0  0
  -34.0338   65.1220   65.2476 C   0  0  0  0  0  0  0  0  0  0  0  0
  -33.3251   65.3284   63.9187 C   0  0  0  0  0  0  0  0  0  0  0  0
  -33.8897   65.9669   63.0249 O   0  0  0  0  0  0  0  0  0  0  0  0
  -33.2064   65.4198   66.4967 C   0  0  0  0  0  0  0  0  0  0  0  0
  -32.1671   64.3729   66.8905 C   0  0  0  0  0  0  0  0  0  0  0  0
  -30.9925   64.2672   65.9259 C   0  0  0  0  0  0  0  0  0  0  0  0
  -31.3920   63.7544   64.5510 C   0  0  0  0  0  0  0  0  0  0  0  0
  -32.0928   64.7558   63.7633 N   0  0  0  0  0  0  0  0  0  0  0  0
  -31.5200   64.9330   62.4910 O   0  0  0  0  0  0  0  0  0  0  0  0
  -30.0252   65.6736   62.5794 Si  0  0  0  0  0  0  0  0  0  0  0  0
  -30.1603   67.1207   63.7788 C   0  0  0  0  0  0  0  0  0  0  0  0
  -29.5912   67.0129   65.0364 C   0  0  0  0  0  0  0  0  0  0  0  0
  -29.6875   68.0861   65.9229 C   0  0  0  0  0  0  0  0  0  0  0  0
  -30.3515   69.2505   65.5382 C   0  0  0  0  0  0  0  0  0  0  0  0
  -30.9193   69.3428   64.2678 C   0  0  0  0  0  0  0  0  0  0  0  0
  -30.8231   68.2697   63.3813 C   0  0  0  0  0  0  0  0  0  0  0  0
  -29.7118   66.5368   60.9386 C   0  0  0  0  0  0  0  0  0  0  0  0
  -28.6565   66.5755   58.7819 C   0  0  0  0  0  0  0  0  0  0  0  0
  -29.2564   67.8056   58.5155 C   0  0  0  0  0  0  0  0  0  0  0  0
  -30.0859   68.3979   59.4678 C   0  0  0  0  0  0  0  0  0  0  0  0
  -30.3152   67.7592   60.6867 C   0  0  0  0  0  0  0  0  0  0  0  0
  -28.8850   65.9368   60.0002 C   0  0  0  0  0  0  0  0  0  0  0  0
  -28.6653   64.5085   63.0792 C   0  0  0  0  0  0  0  0  0  0  0  0
  -28.2121   64.8085   64.5255 C   0  0  0  0  0  0  0  0  0  0  0  0
  -29.1614   63.0474   63.0070 C   0  0  0  0  0  0  0  0  0  0  0  0
  -27.4528   64.6686   62.1351 C   0  0  0  0  0  0  0  0  0  0  0  0
  -41.3930   59.7785   64.6982 C   0  0  0  0  0  0  0  0  0  0  0  0
  -41.2784   58.5520   65.6108 C   0  0  0  0  0  0  0  0  0  0  0  0
  -42.6397   57.8730   65.7985 C   0  0  0  0  0  0  0  0  0  0  0  0
  -43.7885   58.8711   65.9123 C   0  0  0  0  0  0  0  0  0  0  0  0
  -46.5454   59.3552   66.4951 O   0  0  0  0  0  0  0  0  0  0  0  0
  -46.2268   58.7733   65.4556 C   0  0  0  0  0  0  0  0  0  0  0  0
  -44.9328   58.5053   65.1064 N   0  0  0  0  0  0  0  0  0  0  0  0
  -44.5651   57.8447   63.9284 O   0  0  0  0  0  0  0  0  0  0  0  0
  -45.3611   57.6196   63.4219 H   0  0  0  0  0  0  0  0  0  0  0  0
  -47.3032   58.3122   64.4870 C   0  0  0  0  0  0  0  0  0  0  0  0
  -48.2882   57.3339   65.1255 C   0  0  0  0  0  0  0  0  0  0  0  0
  -49.7138   57.8902   65.1855 C   0  0  0  0  0  0  0  0  0  0  0  0
  -49.7140   59.3757   65.5549 C   0  0  0  0  0  0  0  0  0  0  0  0
  -50.9882   60.0679   65.0639 C   0  0  0  0  0  0  0  0  0  0  0  0
  -50.8489   60.6862   63.6695 C   0  0  0  0  0  0  0  0  0  0  0  0
  -51.2683   59.7396   62.5409 C   0  0  0  0  0  0  0  0  0  0  0  0
  -50.0912   59.2565   61.6865 C   0  0  0  0  0  0  0  0  0  0  0  0
  -50.1127   57.7499   61.4189 C   0  0  0  0  0  0  0  0  0  0  0  0
  -48.9115   57.2639   60.6002 C   0  0  0  0  0  0  0  0  0  0  0  0
  -49.1170   55.9519   59.8366 C   0  0  0  0  0  0  0  0  0  0  0  0
  -47.9420   55.5000   58.9637 C   0  0  0  0  0  0  0  0  0  0  0  0
  -46.9408   56.6175   58.6662 C   0  0  0  0  0  0  0  0  0  0  0  0
  -46.9544   56.9925   57.1841 C   0  0  0  0  0  0  0  0  0  0  0  0
  -47.9449   56.1436   56.4029 C   0  0  0  0  0  0  0  0  0  0  0  0
 59 60  2  0  0  0
 60 64  1  0  0  0
 60 61  1  0  0  0
 64 65  1  0  0  0
 65 66  1  0  0  0
 66 67  1  0  0  0
 67 68  1  0  0  0
 68 69  1  0  0  0
 69 70  1  0  0  0
 70 71  1  0  0  0
 71 72  1  0  0  0
 72 73  1  0  0  0
 73 74  2  0  0  0
 74 75  1  0  0  0
 75 76  1  0  0  0
 76 77  1  0  0  0
 77 78  1  0  0  0
 61 62  1  0  0  0
 61 58  1  0  0  0
 58 57  1  0  0  0
 57 56  1  0  0  0
 56 55  1  0  0  0
 55  1  1  0  0  0
  1  2  1  0  0  0
  1 19  1  0  0  0
  2  3  1  0  0  0
  3  4  2  0  0  0
  3  6  1  0  0  0
  6  7  1  0  0  0
  6 10  1  0  0  0
  7  8  2  0  0  0
  8  9  1  0  0  0
  8 11  1  0  0  0
  9 10  1  0  0  0
 11 12  2  0  0  0
 11 16  1  0  0  0
 12 13  1  0  0  0
 13 14  2  0  0  0
 14 15  1  0  0  0
 15 16  2  0  0  0
 16 17  1  0  0  0
 19 20  2  0  0  0
 19 21  1  0  0  0
 21 22  1  0  0  0
 22 23  1  0  0  0
 22 24  1  0  0  0
 24 25  1  0  0  0
 25 26  2  0  0  0
 25 27  1  0  0  0
 27 29  1  0  0  0
 29 30  1  0  0  0
 29 32  1  0  0  0
 30 31  2  0  0  0
 30 36  1  0  0  0
 32 33  1  0  0  0
 33 34  1  0  0  0
 34 35  1  0  0  0
 35 36  1  0  0  0
 36 37  1  0  0  0
 37 38  1  0  0  0
 38 51  1  0  0  0
 38 45  1  0  0  0
 38 39  1  0  0  0
 51 52  1  0  0  0
 51 53  1  0  0  0
 51 54  1  0  0  0
 45 49  2  0  0  0
 45 50  1  0  0  0
 39 40  2  0  0  0
 39 44  1  0  0  0
 46 47  1  0  0  0
 46 50  2  0  0  0
 47 48  2  0  0  0
 48 49  1  0  0  0
 40 41  1  0  0  0
 41 42  2  0  0  0
 42 43  1  0  0  0
 43 44  2  0  0  0
 62 63  1  0  0  0
  2  5  1  0  0  0
 17 18  1  0  0  0
 27 28  1  0  0  0
M  END
> <minimizedAffinity>
-11.92414

$$$$



 78 82  0  0  0  0  0  0  0  0999 V2000
  -40.1326   59.9340   64.2616 C   0  0  0  0  0  0  0  0  0  0  0  0
  -39.2937   58.8360   63.8497 N   0  0  0  0  0  0  0  0  0  0  0  0
  -38.6353   58.7992   62.6332 C   0  0  0  0  0  0  0  0  0  0  0  0
  -38.6704   59.6615   61.7627 O   0  0  0  0  0  0  0  0  0  0  0  0
  -39.1840   58.0749   64.4643 H   0  0  0  0  0  0  0  0  0  0  0  0
  -37.8195   57.5682   62.4164 C   0  0  0  0  0  0  0  0  0  0  0  0
  -36.6889   57.6430   63.3465 N   0  0  0  0  0  0  0  0  0  0  0  0
  -35.6714   57.8757   62.5797 C   0  0  0  0  0  0  0  0  0  0  0  0
  -35.8536   57.9349   61.2394 O   0  0  0  0  0  0  0  0  0  0  0  0
  -37.1998   57.5228   61.0360 C   0  0  0  0  0  0  0  0  0  0  0  0
  -34.3010   58.0902   62.9763 C   0  0  0  0  0  0  0  0  0  0  0  0
  -33.3585   58.4936   62.0199 C   0  0  0  0  0  0  0  0  0  0  0  0
  -32.0286   58.7063   62.3836 C   0  0  0  0  0  0  0  0  0  0  0  0
  -31.6278   58.5172   63.7055 C   0  0  0  0  0  0  0  0  0  0  0  0
  -32.5569   58.1164   64.6657 C   0  0  0  0  0  0  0  0  0  0  0  0
  -33.8875   57.9031   64.3024 C   0  0  0  0  0  0  0  0  0  0  0  0
  -34.7799   57.5109   65.2551 O   0  0  0  0  0  0  0  0  0  0  0  0
  -35.6763   57.3641   65.0253 H   0  0  0  0  0  0  0  0  0  0  0  0
  -39.5387   60.6630   65.4607 C   0  0  0  0  0  0  0  0  0  0  0  0
  -40.0980   61.6104   66.0031 O   0  0  0  0  0  0  0  0  0  0  0  0
  -38.3406   60.1390   65.8445 O   0  0  0  0  0  0  0  0  0  0  0  0
  -37.2099   60.5262   65.0569 C   0  0  0  0  0  0  0  0  0  0  0  0
  -35.9579   60.4143   65.9174 C   0  0  0  0  0  0  0  0  0  0  0  0
  -37.4212   61.9614   64.5758 C   0  0  0  0  0  0  0  0  0  0  0  0
  -36.5595   62.9697   65.3227 C   0  0  0  0  0  0  0  0  0  0  0  0
  -36.5292   63.0562   66.5467 O   0  0  0  0  0  0  0  0  0  0  0  0
  -35.8256   63.7584   64.4478 N   0  0  0  0  0  0  0  0  0  0  0  0
  -35.9234   63.6067   63.4800 H   0  0  0  0  0  0  0  0  0  0  0  0
  -34.9290   64.7872   64.8969 C   0  0  0  0  0  0  0  0  0  0  0  0
  -34.0073   65.1821   63.7543 C   0  0  0  0  0  0  0  0  0  0  0  0
  -34.2812   66.1742   63.0716 O   0  0  0  0  0  0  0  0  0  0  0  0
  -34.2463   64.4889   66.2305 C   0  0  0  0  0  0  0  0  0  0  0  0
  -33.5325   63.1440   66.3440 C   0  0  0  0  0  0  0  0  0  0  0  0
  -32.2833   63.0265   65.4797 C   0  0  0  0  0  0  0  0  0  0  0  0
  -32.5826   63.0539   63.9889 C   0  0  0  0  0  0  0  0  0  0  0  0
  -32.9230   64.3847   63.5119 N   0  0  0  0  0  0  0  0  0  0  0  0
  -32.1470   64.7708   62.4042 O   0  0  0  0  0  0  0  0  0  0  0  0
  -30.6006   65.2161   62.8528 Si  0  0  0  0  0  0  0  0  0  0  0  0
  -29.5656   63.6498   63.0154 C   0  0  0  0  0  0  0  0  0  0  0  0
  -30.1576   62.4201   62.7818 C   0  0  0  0  0  0  0  0  0  0  0  0
  -29.3902   61.2606   62.8979 C   0  0  0  0  0  0  0  0  0  0  0  0
  -28.0427   61.3486   63.2461 C   0  0  0  0  0  0  0  0  0  0  0  0
  -27.4618   62.5951   63.4781 C   0  0  0  0  0  0  0  0  0  0  0  0
  -28.2292   63.7545   63.3620 C   0  0  0  0  0  0  0  0  0  0  0  0
  -30.6717   65.8391   64.6254 C   0  0  0  0  0  0  0  0  0  0  0  0
  -30.0469   65.6099   66.9328 C   0  0  0  0  0  0  0  0  0  0  0  0
  -30.7694   66.7626   67.2382 C   0  0  0  0  0  0  0  0  0  0  0  0
  -31.4428   67.4515   66.2294 C   0  0  0  0  0  0  0  0  0  0  0  0
  -31.3932   66.9869   64.9149 C   0  0  0  0  0  0  0  0  0  0  0  0
  -29.9973   65.1448   65.6191 C   0  0  0  0  0  0  0  0  0  0  0  0
  -29.8196   66.4206   61.6713 C   0  0  0  0  0  0  0  0  0  0  0  0
  -30.9112   67.2422   60.9499 C   0  0  0  0  0  0  0  0  0  0  0  0
  -28.8908   67.3905   62.4346 C   0  0  0  0  0  0  0  0  0  0  0  0
  -28.9860   65.6642   60.6129 C   0  0  0  0  0  0  0  0  0  0  0  0
  -41.5493   59.4498   64.5904 C   0  0  0  0  0  0  0  0  0  0  0  0
  -41.5648   58.3547   65.6632 C   0  0  0  0  0  0  0  0  0  0  0  0
  -42.9747   57.7834   65.8504 C   0  0  0  0  0  0  0  0  0  0  0  0
  -44.0577   58.8582   65.8217 C   0  0  0  0  0  0  0  0  0  0  0  0
  -46.7690   59.6952   66.1725 O   0  0  0  0  0  0  0  0  0  0  0  0
  -46.4737   58.9263   65.2547 C   0  0  0  0  0  0  0  0  0  0  0  0
  -45.2026   58.4813   65.0217 N   0  0  0  0  0  0  0  0  0  0  0  0
  -44.8616   57.6082   63.9822 O   0  0  0  0  0  0  0  0  0  0  0  0
  -45.6570   57.3835   63.4746 H   0  0  0  0  0  0  0  0  0  0  0  0
  -47.5549   58.4232   64.3127 C   0  0  0  0  0  0  0  0  0  0  0  0
  -48.5996   57.5636   65.0232 C   0  0  0  0  0  0  0  0  0  0  0  0
  -50.0325   58.0181   64.7305 C   0  0  0  0  0  0  0  0  0  0  0  0
  -50.2880   59.4276   65.2703 C   0  0  0  0  0  0  0  0  0  0  0  0
  -50.7578   60.3693   64.1583 C   0  0  0  0  0  0  0  0  0  0  0  0
  -50.9552   59.6709   62.8094 C   0  0  0  0  0  0  0  0  0  0  0  0
  -49.9752   60.1438   61.7316 C   0  0  0  0  0  0  0  0  0  0  0  0
  -49.8378   59.1604   60.5642 C   0  0  0  0  0  0  0  0  0  0  0  0
  -50.3989   57.7702   60.8715 C   0  0  0  0  0  0  0  0  0  0  0  0
  -49.6377   56.6415   60.1674 C   0  0  0  0  0  0  0  0  0  0  0  0
  -48.2113   56.9805   59.7231 C   0  0  0  0  0  0  0  0  0  0  0  0
  -47.4250   55.8334   59.0809 C   0  0  0  0  0  0  0  0  0  0  0  0
  -48.1196   55.2297   57.8590 C   0  0  0  0  0  0  0  0  0  0  0  0
  -47.2642   55.3879   56.6018 C   0  0  0  0  0  0  0  0  0  0  0  0
  -46.4791   56.6899   56.6214 C   0  0  0  0  0  0  0  0  0  0  0  0
 59 60  2  0  0  0
 60 64  1  0  0  0
 60 61  1  0  0  0
 64 65  1  0  0  0
 65 66  1  0  0  0
 66 67  1  0  0  0
 67 68  1  0  0  0
 68 69  1  0  0  0
 69 70  1  0  0  0
 70 71  1  0  0  0
 71 72  1  0  0  0
 72 73  1  0  0  0
 73 74  2  0  0  0
 74 75  1  0  0  0
 75 76  1  0  0  0
 76 77  1  0  0  0
 77 78  1  0  0  0
 61 62  1  0  0  0
 61 58  1  0  0  0
 58 57  1  0  0  0
 57 56  1  0  0  0
 56 55  1  0  0  0
 55  1  1  0  0  0
  1  2  1  0  0  0
  1 19  1  0  0  0
  2  3  1  0  0  0
  3  4  2  0  0  0
  3  6  1  0  0  0
  6  7  1  0  0  0
  6 10  1  0  0  0
  7  8  2  0  0  0
  8  9  1  0  0  0
  8 11  1  0  0  0
  9 10  1  0  0  0
 11 12  2  0  0  0
 11 16  1  0  0  0
 12 13  1  0  0  0
 13 14  2  0  0  0
 14 15  1  0  0  0
 15 16  2  0  0  0
 16 17  1  0  0  0
 19 20  2  0  0  0
 19 21  1  0  0  0
 21 22  1  0  0  0
 22 23  1  0  0  0
 22 24  1  0  0  0
 24 25  1  0  0  0
 25 26  2  0  0  0
 25 27  1  0  0  0
 27 29  1  0  0  0
 29 30  1  0  0  0
 29 32  1  0  0  0
 30 31  2  0  0  0
 30 36  1  0  0  0
 32 33  1  0  0  0
 33 34  1  0  0  0
 34 35  1  0  0  0
 35 36  1  0  0  0
 36 37  1  0  0  0
 37 38  1  0  0  0
 38 51  1  0  0  0
 38 45  1  0  0  0
 38 39  1  0  0  0
 51 52  1  0  0  0
 51 53  1  0  0  0
 51 54  1  0  0  0
 45 49  2  0  0  0
 45 50  1  0  0  0
 39 40  2  0  0  0
 39 44  1  0  0  0
 46 47  1  0  0  0
 46 50  2  0  0  0
 47 48  2  0  0  0
 48 49  1  0  0  0
 40 41  1  0  0  0
 41 42  2  0  0  0
 42 43  1  0  0  0
 43 44  2  0  0  0
 62 63  1  0  0  0
  2  5  1  0  0  0
 17 18  1  0  0  0
 27 28  1  0  0  0
M  END
> <minimizedAffinity>
-11.64083

$$$$



 78 82  0  0  0  0  0  0  0  0999 V2000
  -40.1821   59.3955   64.6779 C   0  0  0  0  0  0  0  0  0  0  0  0
  -39.2442   58.3844   64.2573 N   0  0  0  0  0  0  0  0  0  0  0  0
  -38.6665   58.3614   63.0001 C   0  0  0  0  0  0  0  0  0  0  0  0
  -38.8629   59.1660   62.0964 O   0  0  0  0  0  0  0  0  0  0  0  0
  -39.0028   57.6754   64.8961 H   0  0  0  0  0  0  0  0  0  0  0  0
  -37.7225   57.2260   62.7816 C   0  0  0  0  0  0  0  0  0  0  0  0
  -36.5551   57.4795   63.6311 N   0  0  0  0  0  0  0  0  0  0  0  0
  -35.6215   57.7925   62.7897 C   0  0  0  0  0  0  0  0  0  0  0  0
  -35.8903   57.7635   61.4631 O   0  0  0  0  0  0  0  0  0  0  0  0
  -37.1866   57.1859   61.3664 C   0  0  0  0  0  0  0  0  0  0  0  0
  -34.2656   58.1865   63.0857 C   0  0  0  0  0  0  0  0  0  0  0  0
  -34.0312   59.3054   63.8973 C   0  0  0  0  0  0  0  0  0  0  0  0
  -32.7274   59.7024   64.1951 C   0  0  0  0  0  0  0  0  0  0  0  0
  -31.6459   58.9859   63.6843 C   0  0  0  0  0  0  0  0  0  0  0  0
  -31.8670   57.8707   62.8761 C   0  0  0  0  0  0  0  0  0  0  0  0
  -33.1711   57.4733   62.5775 C   0  0  0  0  0  0  0  0  0  0  0  0
  -33.3663   56.3815   61.7852 O   0  0  0  0  0  0  0  0  0  0  0  0
  -34.2364   56.1035   61.5767 H   0  0  0  0  0  0  0  0  0  0  0  0
  -39.6727   60.7931   64.3475 C   0  0  0  0  0  0  0  0  0  0  0  0
  -40.1156   61.4561   63.4155 O   0  0  0  0  0  0  0  0  0  0  0  0
  -38.6907   61.2017   65.1997 O   0  0  0  0  0  0  0  0  0  0  0  0
  -37.3617   60.7912   64.8622 C   0  0  0  0  0  0  0  0  0  0  0  0
  -36.5533   60.6603   66.1465 C   0  0  0  0  0  0  0  0  0  0  0  0
  -36.7512   61.8386   63.9313 C   0  0  0  0  0  0  0  0  0  0  0  0
  -36.0889   62.9849   64.6825 C   0  0  0  0  0  0  0  0  0  0  0  0
  -36.3526   63.2707   65.8467 O   0  0  0  0  0  0  0  0  0  0  0  0
  -35.1628   63.6459   63.8879 N   0  0  0  0  0  0  0  0  0  0  0  0
  -35.0264   63.3352   62.9638 H   0  0  0  0  0  0  0  0  0  0  0  0
  -34.3951   64.7652   64.3589 C   0  0  0  0  0  0  0  0  0  0  0  0
  -33.2853   65.0655   63.3643 C   0  0  0  0  0  0  0  0  0  0  0  0
  -33.4521   65.9531   62.5218 O   0  0  0  0  0  0  0  0  0  0  0  0
  -33.9684   64.6645   65.8223 C   0  0  0  0  0  0  0  0  0  0  0  0
  -33.2529   63.3807   66.2359 C   0  0  0  0  0  0  0  0  0  0  0  0
  -31.8603   63.2230   65.6382 C   0  0  0  0  0  0  0  0  0  0  0  0
  -31.8737   63.0555   64.1267 C   0  0  0  0  0  0  0  0  0  0  0  0
  -32.1537   64.3003   63.4292 N   0  0  0  0  0  0  0  0  0  0  0  0
  -31.1933   64.5887   62.4429 O   0  0  0  0  0  0  0  0  0  0  0  0
  -29.9585   65.5441   63.0374 Si  0  0  0  0  0  0  0  0  0  0  0  0
  -30.4387   66.1079   64.7701 C   0  0  0  0  0  0  0  0  0  0  0  0
  -31.2756   67.2010   64.9186 C   0  0  0  0  0  0  0  0  0  0  0  0
  -31.6347   67.6158   66.2015 C   0  0  0  0  0  0  0  0  0  0  0  0
  -31.1513   66.9313   67.3162 C   0  0  0  0  0  0  0  0  0  0  0  0
  -30.3092   65.8322   67.1492 C   0  0  0  0  0  0  0  0  0  0  0  0
  -29.9501   65.4175   65.8663 C   0  0  0  0  0  0  0  0  0  0  0  0
  -29.9625   67.1577   62.0720 C   0  0  0  0  0  0  0  0  0  0  0  0
  -29.5440   69.5204   61.9766 C   0  0  0  0  0  0  0  0  0  0  0  0
  -29.9601   69.5357   60.6459 C   0  0  0  0  0  0  0  0  0  0  0  0
  -30.3773   68.3547   60.0319 C   0  0  0  0  0  0  0  0  0  0  0  0
  -30.3781   67.1583   60.7495 C   0  0  0  0  0  0  0  0  0  0  0  0
  -29.5449   68.3249   62.6944 C   0  0  0  0  0  0  0  0  0  0  0  0
  -28.3108   64.6830   63.0411 C   0  0  0  0  0  0  0  0  0  0  0  0
  -27.6957   64.7047   61.6239 C   0  0  0  0  0  0  0  0  0  0  0  0
  -27.3416   65.3899   64.0143 C   0  0  0  0  0  0  0  0  0  0  0  0
  -28.4788   63.2134   63.4875 C   0  0  0  0  0  0  0  0  0  0  0  0
  -40.4739   59.2841   66.1786 C   0  0  0  0  0  0  0  0  0  0  0  0
  -41.8876   58.7666   66.4682 C   0  0  0  0  0  0  0  0  0  0  0  0
  -42.8947   59.9198   66.5415 C   0  0  0  0  0  0  0  0  0  0  0  0
  -44.0378   59.7721   65.5415 C   0  0  0  0  0  0  0  0  0  0  0  0
  -44.4687   57.1250   64.5506 O   0  0  0  0  0  0  0  0  0  0  0  0
  -45.1865   57.5733   65.4475 C   0  0  0  0  0  0  0  0  0  0  0  0
  -45.0439   58.8266   65.9735 N   0  0  0  0  0  0  0  0  0  0  0  0
  -45.8559   59.3411   66.9910 O   0  0  0  0  0  0  0  0  0  0  0  0
  -46.5130   58.6754   67.2480 H   0  0  0  0  0  0  0  0  0  0  0  0
  -46.3018   56.7160   66.0226 C   0  0  0  0  0  0  0  0  0  0  0  0
  -47.6883   57.1809   65.5791 C   0  0  0  0  0  0  0  0  0  0  0  0
  -47.6755   57.8269   64.1905 C   0  0  0  0  0  0  0  0  0  0  0  0
  -48.0183   59.3167   64.2694 C   0  0  0  0  0  0  0  0  0  0  0  0
  -48.9732   59.6042   65.4310 C   0  0  0  0  0  0  0  0  0  0  0  0
  -50.4340   59.2656   65.1188 C   0  0  0  0  0  0  0  0  0  0  0  0
  -50.6542   58.7985   63.6769 C   0  0  0  0  0  0  0  0  0  0  0  0
  -51.1469   59.9131   62.7476 C   0  0  0  0  0  0  0  0  0  0  0  0
  -50.0318   60.5430   61.9098 C   0  0  0  0  0  0  0  0  0  0  0  0
  -49.6444   59.7020   60.6884 C   0  0  0  0  0  0  0  0  0  0  0  0
  -50.3031   58.3219   60.5978 C   0  0  0  0  0  0  0  0  0  0  0  0
  -49.9704   57.5078   59.3436 C   0  0  0  0  0  0  0  0  0  0  0  0
  -48.6167   56.7995   59.4200 C   0  0  0  0  0  0  0  0  0  0  0  0
  -47.9726   56.6862   58.0381 C   0  0  0  0  0  0  0  0  0  0  0  0
  -46.9566   55.5561   57.9871 C   0  0  0  0  0  0  0  0  0  0  0  0
 59 60  2  0  0  0
 60 64  1  0  0  0
 60 61  1  0  0  0
 64 65  1  0  0  0
 65 66  1  0  0  0
 66 67  1  0  0  0
 67 68  1  0  0  0
 68 69  1  0  0  0
 69 70  1  0  0  0
 70 71  1  0  0  0
 71 72  1  0  0  0
 72 73  1  0  0  0
 73 74  2  0  0  0
 74 75  1  0  0  0
 75 76  1  0  0  0
 76 77  1  0  0  0
 77 78  1  0  0  0
 61 62  1  0  0  0
 61 58  1  0  0  0
 58 57  1  0  0  0
 57 56  1  0  0  0
 56 55  1  0  0  0
 55  1  1  0  0  0
  1  2  1  0  0  0
  1 19  1  0  0  0
  2  3  1  0  0  0
  3  4  2  0  0  0
  3  6  1  0  0  0
  6  7  1  0  0  0
  6 10  1  0  0  0
  7  8  2  0  0  0
  8  9  1  0  0  0
  8 11  1  0  0  0
  9 10  1  0  0  0
 11 12  2  0  0  0
 11 16  1  0  0  0
 12 13  1  0  0  0
 13 14  2  0  0  0
 14 15  1  0  0  0
 15 16  2  0  0  0
 16 17  1  0  0  0
 19 20  2  0  0  0
 19 21  1  0  0  0
 21 22  1  0  0  0
 22 23  1  0  0  0
 22 24  1  0  0  0
 24 25  1  0  0  0
 25 26  2  0  0  0
 25 27  1  0  0  0
 27 29  1  0  0  0
 29 30  1  0  0  0
 29 32  1  0  0  0
 30 31  2  0  0  0
 30 36  1  0  0  0
 32 33  1  0  0  0
 33 34  1  0  0  0
 34 35  1  0  0  0
 35 36  1  0  0  0
 36 37  1  0  0  0
 37 38  1  0  0  0
 38 51  1  0  0  0
 38 45  1  0  0  0
 38 39  1  0  0  0
 51 52  1  0  0  0
 51 53  1  0  0  0
 51 54  1  0  0  0
 45 49  2  0  0  0
 45 50  1  0  0  0
 39 40  2  0  0  0
 39 44  1  0  0  0
 46 47  1  0  0  0
 46 50  2  0  0  0
 47 48  2  0  0  0
 48 49  1  0  0  0
 40 41  1  0  0  0
 41 42  2  0  0  0
 42 43  1  0  0  0
 43 44  2  0  0  0
 62 63  1  0  0  0
  2  5  1  0  0  0
 17 18  1  0  0  0
 27 28  1  0  0  0
M  END
> <minimizedAffinity>
-10.22312

$$$$



 78 82  0  0  0  0  0  0  0  0999 V2000
  -36.2754   58.1184   64.4732 C   0  0  0  0  0  0  0  0  0  0  0  0
  -36.6883   59.0126   63.4203 N   0  0  0  0  0  0  0  0  0  0  0  0
  -36.5824   58.7021   62.0761 C   0  0  0  0  0  0  0  0  0  0  0  0
  -36.1374   57.6618   61.6045 O   0  0  0  0  0  0  0  0  0  0  0  0
  -37.0642   59.8876   63.6702 H   0  0  0  0  0  0  0  0  0  0  0  0
  -37.0729   59.7738   61.1603 C   0  0  0  0  0  0  0  0  0  0  0  0
  -37.7741   60.7533   61.9957 N   0  0  0  0  0  0  0  0  0  0  0  0
  -39.0215   60.5842   61.6910 C   0  0  0  0  0  0  0  0  0  0  0  0
  -39.3527   59.6822   60.7372 O   0  0  0  0  0  0  0  0  0  0  0  0
  -38.1108   59.2661   60.1822 C   0  0  0  0  0  0  0  0  0  0  0  0
  -40.1648   61.2595   62.2551 C   0  0  0  0  0  0  0  0  0  0  0  0
  -40.2576   61.4208   63.6447 C   0  0  0  0  0  0  0  0  0  0  0  0
  -41.3551   62.0709   64.2095 C   0  0  0  0  0  0  0  0  0  0  0  0
  -42.3703   62.5650   63.3916 C   0  0  0  0  0  0  0  0  0  0  0  0
  -42.2885   62.4108   62.0077 C   0  0  0  0  0  0  0  0  0  0  0  0
  -41.1910   61.7601   61.4421 C   0  0  0  0  0  0  0  0  0  0  0  0
  -41.1300   61.6186   60.0878 O   0  0  0  0  0  0  0  0  0  0  0  0
  -40.3990   61.1839   59.6946 H   0  0  0  0  0  0  0  0  0  0  0  0
  -35.0076   57.3640   64.0916 C   0  0  0  0  0  0  0  0  0  0  0  0
  -35.0280   56.3060   63.4713 O   0  0  0  0  0  0  0  0  0  0  0  0
  -33.8788   58.0006   64.5135 O   0  0  0  0  0  0  0  0  0  0  0  0
  -33.3853   59.0314   63.6517 C   0  0  0  0  0  0  0  0  0  0  0  0
  -32.1714   58.4974   62.9022 C   0  0  0  0  0  0  0  0  0  0  0  0
  -33.0157   60.2437   64.5060 C   0  0  0  0  0  0  0  0  0  0  0  0
  -34.0460   61.3613   64.4259 C   0  0  0  0  0  0  0  0  0  0  0  0
  -35.0728   61.2862   63.7576 O   0  0  0  0  0  0  0  0  0  0  0  0
  -33.6743   62.4521   65.1992 N   0  0  0  0  0  0  0  0  0  0  0  0
  -32.8271   62.4099   65.6988 H   0  0  0  0  0  0  0  0  0  0  0  0
  -34.4754   63.6404   65.3003 C   0  0  0  0  0  0  0  0  0  0  0  0
  -33.9691   64.6720   64.3052 C   0  0  0  0  0  0  0  0  0  0  0  0
  -34.5294   64.7818   63.2101 O   0  0  0  0  0  0  0  0  0  0  0  0
  -34.6833   64.1394   66.7291 C   0  0  0  0  0  0  0  0  0  0  0  0
  -33.4254   64.3328   67.5725 C   0  0  0  0  0  0  0  0  0  0  0  0
  -32.5386   65.4839   67.1143 C   0  0  0  0  0  0  0  0  0  0  0  0
  -31.9187   65.2528   65.7448 C   0  0  0  0  0  0  0  0  0  0  0  0
  -32.8773   65.4137   64.6634 N   0  0  0  0  0  0  0  0  0  0  0  0
  -32.4237   66.3050   63.6744 O   0  0  0  0  0  0  0  0  0  0  0  0
  -30.7630   66.2494   63.5012 Si  0  0  0  0  0  0  0  0  0  0  0  0
  -30.3309   66.9200   61.7941 C   0  0  0  0  0  0  0  0  0  0  0  0
  -30.7696   68.1824   61.4319 C   0  0  0  0  0  0  0  0  0  0  0  0
  -30.4459   68.6808   60.1695 C   0  0  0  0  0  0  0  0  0  0  0  0
  -29.6888   67.9091   59.2886 C   0  0  0  0  0  0  0  0  0  0  0  0
  -29.2548   66.6395   59.6689 C   0  0  0  0  0  0  0  0  0  0  0  0
  -29.5785   66.1411   60.9313 C   0  0  0  0  0  0  0  0  0  0  0  0
  -30.2580   64.4433   63.3653 C   0  0  0  0  0  0  0  0  0  0  0  0
  -28.6350   62.7094   63.7208 C   0  0  0  0  0  0  0  0  0  0  0  0
  -29.5165   61.7784   63.1728 C   0  0  0  0  0  0  0  0  0  0  0  0
  -30.7714   62.1873   62.7216 C   0  0  0  0  0  0  0  0  0  0  0  0
  -31.1445   63.5281   62.8189 C   0  0  0  0  0  0  0  0  0  0  0  0
  -29.0072   64.0497   63.8180 C   0  0  0  0  0  0  0  0  0  0  0  0
  -29.8616   67.1758   64.8375 C   0  0  0  0  0  0  0  0  0  0  0  0
  -28.5539   67.7789   64.2778 C   0  0  0  0  0  0  0  0  0  0  0  0
  -30.7442   68.3212   65.3810 C   0  0  0  0  0  0  0  0  0  0  0  0
  -29.5110   66.2234   66.0025 C   0  0  0  0  0  0  0  0  0  0  0  0
  -37.3915   57.1271   64.8215 C   0  0  0  0  0  0  0  0  0  0  0  0
  -38.7023   57.4324   64.0873 C   0  0  0  0  0  0  0  0  0  0  0  0
  -39.5870   58.3797   64.9054 C   0  0  0  0  0  0  0  0  0  0  0  0
  -40.9046   57.7388   65.3320 C   0  0  0  0  0  0  0  0  0  0  0  0
  -43.7166   57.8038   64.8191 O   0  0  0  0  0  0  0  0  0  0  0  0
  -43.1990   58.6651   65.5340 C   0  0  0  0  0  0  0  0  0  0  0  0
  -41.8643   58.7021   65.8258 N   0  0  0  0  0  0  0  0  0  0  0  0
  -41.2711   59.6773   66.6359 O   0  0  0  0  0  0  0  0  0  0  0  0
  -41.9494   60.2990   66.9429 H   0  0  0  0  0  0  0  0  0  0  0  0
  -44.0592   59.7620   66.1393 C   0  0  0  0  0  0  0  0  0  0  0  0
  -45.5273   59.3563   66.2631 C   0  0  0  0  0  0  0  0  0  0  0  0
  -46.4230   60.0733   65.2488 C   0  0  0  0  0  0  0  0  0  0  0  0
  -47.6175   59.2024   64.8513 C   0  0  0  0  0  0  0  0  0  0  0  0
  -48.8680   59.5806   65.6495 C   0  0  0  0  0  0  0  0  0  0  0  0
  -50.1677   59.0522   65.0349 C   0  0  0  0  0  0  0  0  0  0  0  0
  -51.0232   60.1466   64.3898 C   0  0  0  0  0  0  0  0  0  0  0  0
  -51.2394   59.9396   62.8867 C   0  0  0  0  0  0  0  0  0  0  0  0
  -49.9887   60.2161   62.0492 C   0  0  0  0  0  0  0  0  0  0  0  0
  -49.7276   59.1481   60.9814 C   0  0  0  0  0  0  0  0  0  0  0  0
  -49.6556   57.7051   61.4907 C   0  0  0  0  0  0  0  0  0  0  0  0
  -49.4630   56.6301   60.4165 C   0  0  0  0  0  0  0  0  0  0  0  0
  -49.5116   57.1805   58.9901 C   0  0  0  0  0  0  0  0  0  0  0  0
  -48.2536   56.8024   58.2079 C   0  0  0  0  0  0  0  0  0  0  0  0
  -47.3779   55.8380   58.9922 C   0  0  0  0  0  0  0  0  0  0  0  0
 59 60  2  0  0  0
 60 64  1  0  0  0
 60 61  1  0  0  0
 64 65  1  0  0  0
 65 66  1  0  0  0
 66 67  1  0  0  0
 67 68  1  0  0  0
 68 69  1  0  0  0
 69 70  1  0  0  0
 70 71  1  0  0  0
 71 72  1  0  0  0
 72 73  1  0  0  0
 73 74  2  0  0  0
 74 75  1  0  0  0
 75 76  1  0  0  0
 76 77  1  0  0  0
 77 78  1  0  0  0
 61 62  1  0  0  0
 61 58  1  0  0  0
 58 57  1  0  0  0
 57 56  1  0  0  0
 56 55  1  0  0  0
 55  1  1  0  0  0
  1  2  1  0  0  0
  1 19  1  0  0  0
  2  3  1  0  0  0
  3  4  2  0  0  0
  3  6  1  0  0  0
  6  7  1  0  0  0
  6 10  1  0  0  0
  7  8  2  0  0  0
  8  9  1  0  0  0
  8 11  1  0  0  0
  9 10  1  0  0  0
 11 12  2  0  0  0
 11 16  1  0  0  0
 12 13  1  0  0  0
 13 14  2  0  0  0
 14 15  1  0  0  0
 15 16  2  0  0  0
 16 17  1  0  0  0
 19 20  2  0  0  0
 19 21  1  0  0  0
 21 22  1  0  0  0
 22 23  1  0  0  0
 22 24  1  0  0  0
 24 25  1  0  0  0
 25 26  2  0  0  0
 25 27  1  0  0  0
 27 29  1  0  0  0
 29 30  1  0  0  0
 29 32  1  0  0  0
 30 31  2  0  0  0
 30 36  1  0  0  0
 32 33  1  0  0  0
 33 34  1  0  0  0
 34 35  1  0  0  0
 35 36  1  0  0  0
 36 37  1  0  0  0
 37 38  1  0  0  0
 38 51  1  0  0  0
 38 45  1  0  0  0
 38 39  1  0  0  0
 51 52  1  0  0  0
 51 53  1  0  0  0
 51 54  1  0  0  0
 45 49  2  0  0  0
 45 50  1  0  0  0
 39 40  2  0  0  0
 39 44  1  0  0  0
 46 47  1  0  0  0
 46 50  2  0  0  0
 47 48  2  0  0  0
 48 49  1  0  0  0
 40 41  1  0  0  0
 41 42  2  0  0  0
 42 43  1  0  0  0
 43 44  2  0  0  0
 62 63  1  0  0  0
  2  5  1  0  0  0
 17 18  1  0  0  0
 27 28  1  0  0  0
M  END
> <minimizedAffinity>
-10.02684

$$$$
