


 37 36  0  0  0  0  0  0  0  0999 V2000
  -44.3103   60.1617   65.4109 O   0  0  0  0  0  0  0  0  0  0  0  0
  -43.6944   59.3055   64.8535 C   0  0  0  0  0  0  0  0  0  0  0  0
  -44.2248   57.9426   64.5497 C   0  0  0  0  0  0  0  0  0  0  0  0
  -44.5770   57.1541   65.7969 C   0  0  0  0  0  0  0  0  0  0  0  0
  -46.0590   56.8717   65.9165 C   0  0  0  0  0  0  0  0  0  0  0  0
  -46.8979   58.0734   66.2826 C   0  0  0  0  0  0  0  0  0  0  0  0
  -47.7573   58.5844   65.1546 C   0  0  0  0  0  0  0  0  0  0  0  0
  -49.1008   57.9076   65.1045 C   0  0  0  0  0  0  0  0  0  0  0  0
  -50.2763   58.7858   65.4160 C   0  0  0  0  0  0  0  0  0  0  0  0
  -50.3132   60.0167   64.6131 C   0  0  0  0  0  0  0  0  0  0  0  0
  -50.7232   60.1609   63.3722 C   0  0  0  0  0  0  0  0  0  0  0  0
  -51.2768   59.1228   62.4665 C   0  0  0  0  0  0  0  0  0  0  0  0
  -50.2519   58.2805   61.7348 C   0  0  0  0  0  0  0  0  0  0  0  0
  -50.8526   57.4781   60.6135 C   0  0  0  0  0  0  0  0  0  0  0  0
  -49.9060   57.1719   59.4812 C   0  0  0  0  0  0  0  0  0  0  0  0
  -48.7869   56.2415   59.8941 C   0  0  0  0  0  0  0  0  0  0  0  0
  -47.8379   55.8638   58.7911 C   0  0  0  0  0  0  0  0  0  0  0  0
  -47.8876   56.7865   57.6399 C   0  0  0  0  0  0  0  0  0  0  0  0
  -46.6561   56.7992   56.8529 C   0  0  0  0  0  0  0  0  0  0  0  0
  -42.4382   59.4504   64.4318 O   0  0  0  0  0  0  0  0  0  0  0  0
  -41.4771   59.9862   65.3684 C   0  0  0  0  0  0  0  0  0  0  0  0
  -40.8253   61.1763   64.7028 C   0  0  0  0  0  0  0  0  0  0  0  0
  -40.2628   62.0301   65.6993 O   0  0  0  0  0  0  0  0  0  0  0  0
  -39.5599   61.5568   66.1712 H   0  0  0  0  0  0  0  0  0  0  0  0
  -39.7466   60.8375   63.7028 C   0  0  0  0  0  0  0  0  0  0  0  0
  -39.5245   59.4132   63.7323 O   0  0  0  0  0  0  0  0  0  0  0  0
  -38.0674   58.8386   63.4564 P   0  0  0  0  0  0  0  0  0  0  0  0
  -38.2367   57.5293   62.7943 O   0  0  0  0  0  0  0  0  0  0  0  0
  -37.3124   59.9020   62.7649 O   0  0  0  0  0  0  0  0  0  0  0  0
  -37.7194   60.0790   61.9024 H   0  0  0  0  0  0  0  0  0  0  0  0
  -37.3587   58.5934   64.8545 O   0  0  0  0  0  0  0  0  0  0  0  0
  -36.0741   59.2025   65.1240 C   0  0  0  0  0  0  0  0  0  0  0  0
  -35.0379   58.1733   64.7333 C   0  0  0  0  0  0  0  0  0  0  0  0
  -33.8258   58.6940   63.9867 N   0  0  0  0  0  0  0  0  0  0  0  0
  -32.5575   58.2329   64.6299 C   0  0  0  0  0  0  0  0  0  0  0  0
  -33.8441   60.1890   63.9841 C   0  0  0  0  0  0  0  0  0  0  0  0
  -33.8547   58.1972   62.5754 C   0  0  0  0  0  0  0  0  0  0  0  0
 34 33  1  0  0  0
 34 35  1  0  0  0
 34 36  1  0  0  0
 34 37  1  0  0  0
 22 23  1  0  0  0
 22 25  1  0  0  0
 22 21  1  0  0  0
 27 26  1  0  0  0
 27 28  2  0  0  0
 27 31  1  0  0  0
 27 29  1  0  0  0
 25 26  1  0  0  0
 32 33  1  0  0  0
 32 31  1  0  0  0
 20 21  1  0  0  0
 20  2  1  0  0  0
  1  2  2  0  0  0
  2  3  1  0  0  0
  3  4  1  0  0  0
  4  5  1  0  0  0
  5  6  1  0  0  0
  6  7  1  0  0  0
  7  8  1  0  0  0
  8  9  1  0  0  0
  9 10  1  0  0  0
 10 11  2  0  0  0
 11 12  1  0  0  0
 12 13  1  0  0  0
 13 14  1  0  0  0
 14 15  1  0  0  0
 15 16  1  0  0  0
 16 17  1  0  0  0
 17 18  1  0  0  0
 18 19  1  0  0  0
 23 24  1  0  0  0
 29 30  1  0  0  0
M  CHG 1  28  -1
M  END
> <minimizedAffinity>
-7.85233

> <CNNscore>
0.8929554224

> <CNNaffinity>
6.8901176453

> <CNN_VS>
6.1525678635

> <CNNaffinity_variance>
0.4710308909

$$$$



 37 36  0  0  0  0  0  0  0  0999 V2000
  -44.4470   60.2783   65.1235 O   0  0  0  0  0  0  0  0  0  0  0  0
  -43.4710   59.5970   65.2027 C   0  0  0  0  0  0  0  0  0  0  0  0
  -43.4848   58.1250   65.4558 C   0  0  0  0  0  0  0  0  0  0  0  0
  -44.6571   57.4231   64.7967 C   0  0  0  0  0  0  0  0  0  0  0  0
  -45.6812   56.9244   65.7931 C   0  0  0  0  0  0  0  0  0  0  0  0
  -46.7990   57.8983   66.0827 C   0  0  0  0  0  0  0  0  0  0  0  0
  -47.5323   58.3691   64.8527 C   0  0  0  0  0  0  0  0  0  0  0  0
  -48.8547   57.6734   64.6714 C   0  0  0  0  0  0  0  0  0  0  0  0
  -50.0317   58.3517   65.3075 C   0  0  0  0  0  0  0  0  0  0  0  0
  -50.1341   59.7789   64.9704 C   0  0  0  0  0  0  0  0  0  0  0  0
  -50.6738   60.3206   63.9008 C   0  0  0  0  0  0  0  0  0  0  0  0
  -51.3403   59.6333   62.7660 C   0  0  0  0  0  0  0  0  0  0  0  0
  -50.4175   59.1253   61.6771 C   0  0  0  0  0  0  0  0  0  0  0  0
  -50.5531   57.6457   61.4437 C   0  0  0  0  0  0  0  0  0  0  0  0
  -50.2758   57.2034   60.0297 C   0  0  0  0  0  0  0  0  0  0  0  0
  -49.0175   56.3712   59.9168 C   0  0  0  0  0  0  0  0  0  0  0  0
  -48.1471   56.6964   58.7351 C   0  0  0  0  0  0  0  0  0  0  0  0
  -47.6030   55.4980   58.0665 C   0  0  0  0  0  0  0  0  0  0  0  0
  -47.0436   55.7746   56.7448 C   0  0  0  0  0  0  0  0  0  0  0  0
  -42.2284   60.0645   65.0830 O   0  0  0  0  0  0  0  0  0  0  0  0
  -41.9217   60.8529   63.9115 C   0  0  0  0  0  0  0  0  0  0  0  0
  -40.7149   61.6979   64.2492 C   0  0  0  0  0  0  0  0  0  0  0  0
  -40.8055   62.1370   65.6046 O   0  0  0  0  0  0  0  0  0  0  0  0
  -40.7802   61.3685   66.1959 H   0  0  0  0  0  0  0  0  0  0  0  0
  -39.3828   61.0139   64.0588 C   0  0  0  0  0  0  0  0  0  0  0  0
  -39.5051   60.0625   62.9825 O   0  0  0  0  0  0  0  0  0  0  0  0
  -38.8042   60.3601   61.5862 P   0  0  0  0  0  0  0  0  0  0  0  0
  -39.8769   60.6818   60.6233 O   0  0  0  0  0  0  0  0  0  0  0  0
  -37.7457   61.3563   61.8431 O   0  0  0  0  0  0  0  0  0  0  0  0
  -38.1484   62.1856   62.1449 H   0  0  0  0  0  0  0  0  0  0  0  0
  -38.0889   59.0310   61.0978 O   0  0  0  0  0  0  0  0  0  0  0  0
  -37.7389   58.0093   62.0608 C   0  0  0  0  0  0  0  0  0  0  0  0
  -36.3244   58.3180   62.4963 C   0  0  0  0  0  0  0  0  0  0  0  0
  -36.0933   58.4288   63.9903 N   0  0  0  0  0  0  0  0  0  0  0  0
  -34.9162   57.6112   64.4156 C   0  0  0  0  0  0  0  0  0  0  0  0
  -37.3029   57.9411   64.7212 C   0  0  0  0  0  0  0  0  0  0  0  0
  -35.8395   59.8581   64.3537 C   0  0  0  0  0  0  0  0  0  0  0  0
 34 33  1  0  0  0
 34 35  1  0  0  0
 34 36  1  0  0  0
 34 37  1  0  0  0
 22 23  1  0  0  0
 22 25  1  0  0  0
 22 21  1  0  0  0
 27 26  1  0  0  0
 27 28  2  0  0  0
 27 31  1  0  0  0
 27 29  1  0  0  0
 25 26  1  0  0  0
 32 33  1  0  0  0
 32 31  1  0  0  0
 20 21  1  0  0  0
 20  2  1  0  0  0
  1  2  2  0  0  0
  2  3  1  0  0  0
  3  4  1  0  0  0
  4  5  1  0  0  0
  5  6  1  0  0  0
  6  7  1  0  0  0
  7  8  1  0  0  0
  8  9  1  0  0  0
  9 10  1  0  0  0
 10 11  2  0  0  0
 11 12  1  0  0  0
 12 13  1  0  0  0
 13 14  1  0  0  0
 14 15  1  0  0  0
 15 16  1  0  0  0
 16 17  1  0  0  0
 17 18  1  0  0  0
 18 19  1  0  0  0
 23 24  1  0  0  0
 29 30  1  0  0  0
M  CHG 1  28  -1
M  END
> <minimizedAffinity>
-8.37228

> <CNNscore>
0.8724765182

> <CNNaffinity>
6.9988684654

> <CNN_VS>
6.1063485146

> <CNNaffinity_variance>
0.2863293290

$$$$



 37 36  0  0  0  0  0  0  0  0999 V2000
  -42.7837   57.2601   65.8782 O   0  0  0  0  0  0  0  0  0  0  0  0
  -42.7535   58.4172   65.5898 C   0  0  0  0  0  0  0  0  0  0  0  0
  -43.9596   59.2888   65.4599 C   0  0  0  0  0  0  0  0  0  0  0  0
  -45.2298   58.6158   65.9447 C   0  0  0  0  0  0  0  0  0  0  0  0
  -46.0533   58.0303   64.8181 C   0  0  0  0  0  0  0  0  0  0  0  0
  -47.5473   58.1435   65.0102 C   0  0  0  0  0  0  0  0  0  0  0  0
  -48.0628   59.5593   64.9665 C   0  0  0  0  0  0  0  0  0  0  0  0
  -49.5310   59.6260   64.6420 C   0  0  0  0  0  0  0  0  0  0  0  0
  -49.9237   60.6783   63.6478 C   0  0  0  0  0  0  0  0  0  0  0  0
  -49.4574   60.3936   62.2830 C   0  0  0  0  0  0  0  0  0  0  0  0
  -49.8628   59.4415   61.4720 C   0  0  0  0  0  0  0  0  0  0  0  0
  -50.9128   58.4202   61.7147 C   0  0  0  0  0  0  0  0  0  0  0  0
  -50.9465   57.2708   60.7282 C   0  0  0  0  0  0  0  0  0  0  0  0
  -49.7356   57.2341   59.8369 C   0  0  0  0  0  0  0  0  0  0  0  0
  -48.9501   55.9490   59.8950 C   0  0  0  0  0  0  0  0  0  0  0  0
  -47.6894   55.9998   59.0602 C   0  0  0  0  0  0  0  0  0  0  0  0
  -47.6402   57.1161   58.0546 C   0  0  0  0  0  0  0  0  0  0  0  0
  -47.5736   56.6391   56.6592 C   0  0  0  0  0  0  0  0  0  0  0  0
  -47.3170   55.2045   56.5480 C   0  0  0  0  0  0  0  0  0  0  0  0
  -41.6307   59.0891   65.3354 O   0  0  0  0  0  0  0  0  0  0  0  0
  -41.3442   60.2450   66.1539 C   0  0  0  0  0  0  0  0  0  0  0  0
  -40.3134   61.0671   65.4151 C   0  0  0  0  0  0  0  0  0  0  0  0
  -40.3362   62.4088   65.9025 O   0  0  0  0  0  0  0  0  0  0  0  0
  -40.0793   62.4174   66.8378 H   0  0  0  0  0  0  0  0  0  0  0  0
  -38.8981   60.5509   65.5088 C   0  0  0  0  0  0  0  0  0  0  0  0
  -38.0877   61.5493   66.1611 O   0  0  0  0  0  0  0  0  0  0  0  0
  -36.7050   61.9885   65.5095 P   0  0  0  0  0  0  0  0  0  0  0  0
  -37.0054   62.4891   64.1529 O   0  0  0  0  0  0  0  0  0  0  0  0
  -36.0424   62.8853   66.4769 O   0  0  0  0  0  0  0  0  0  0  0  0
  -36.5745   63.6884   66.5901 H   0  0  0  0  0  0  0  0  0  0  0  0
  -35.7933   60.6981   65.3656 O   0  0  0  0  0  0  0  0  0  0  0  0
  -35.0743   60.4618   64.1324 C   0  0  0  0  0  0  0  0  0  0  0  0
  -34.9387   58.9608   64.0133 C   0  0  0  0  0  0  0  0  0  0  0  0
  -36.0879   58.2363   63.3409 N   0  0  0  0  0  0  0  0  0  0  0  0
  -36.9607   57.5586   64.3479 C   0  0  0  0  0  0  0  0  0  0  0  0
  -35.5484   57.2034   62.4041 C   0  0  0  0  0  0  0  0  0  0  0  0
  -36.9168   59.2162   62.5714 C   0  0  0  0  0  0  0  0  0  0  0  0
 34 33  1  0  0  0
 34 35  1  0  0  0
 34 36  1  0  0  0
 34 37  1  0  0  0
 22 23  1  0  0  0
 22 25  1  0  0  0
 22 21  1  0  0  0
 27 26  1  0  0  0
 27 28  2  0  0  0
 27 31  1  0  0  0
 27 29  1  0  0  0
 25 26  1  0  0  0
 32 33  1  0  0  0
 32 31  1  0  0  0
 20 21  1  0  0  0
 20  2  1  0  0  0
  1  2  2  0  0  0
  2  3  1  0  0  0
  3  4  1  0  0  0
  4  5  1  0  0  0
  5  6  1  0  0  0
  6  7  1  0  0  0
  7  8  1  0  0  0
  8  9  1  0  0  0
  9 10  1  0  0  0
 10 11  2  0  0  0
 11 12  1  0  0  0
 12 13  1  0  0  0
 13 14  1  0  0  0
 14 15  1  0  0  0
 15 16  1  0  0  0
 16 17  1  0  0  0
 17 18  1  0  0  0
 18 19  1  0  0  0
 23 24  1  0  0  0
 29 30  1  0  0  0
M  CHG 1  28  -1
M  END
> <minimizedAffinity>
-8.11089

> <CNNscore>
0.8720408082

> <CNNaffinity>
7.0048074722

> <CNN_VS>
6.1084780693

> <CNNaffinity_variance>
0.4802875519

$$$$



 37 36  0  0  0  0  0  0  0  0999 V2000
  -41.2366   60.1911   66.5746 O   0  0  0  0  0  0  0  0  0  0  0  0
  -41.6290   59.5864   65.6242 C   0  0  0  0  0  0  0  0  0  0  0  0
  -42.7533   58.6035   65.6516 C   0  0  0  0  0  0  0  0  0  0  0  0
  -43.8946   58.9854   64.7280 C   0  0  0  0  0  0  0  0  0  0  0  0
  -44.7912   57.8156   64.3842 C   0  0  0  0  0  0  0  0  0  0  0  0
  -45.2889   57.0361   65.5786 C   0  0  0  0  0  0  0  0  0  0  0  0
  -46.7808   57.1138   65.7795 C   0  0  0  0  0  0  0  0  0  0  0  0
  -47.4481   58.0208   64.7807 C   0  0  0  0  0  0  0  0  0  0  0  0
  -48.3628   59.0575   65.3627 C   0  0  0  0  0  0  0  0  0  0  0  0
  -48.2795   60.3571   64.6807 C   0  0  0  0  0  0  0  0  0  0  0  0
  -49.0636   60.8261   63.7353 C   0  0  0  0  0  0  0  0  0  0  0  0
  -50.2507   60.1748   63.1263 C   0  0  0  0  0  0  0  0  0  0  0  0
  -49.9863   59.3905   61.8573 C   0  0  0  0  0  0  0  0  0  0  0  0
  -50.2991   57.9266   62.0029 C   0  0  0  0  0  0  0  0  0  0  0  0
  -51.0245   57.3182   60.8301 C   0  0  0  0  0  0  0  0  0  0  0  0
  -50.2666   57.4785   59.5307 C   0  0  0  0  0  0  0  0  0  0  0  0
  -49.0648   56.5875   59.3844 C   0  0  0  0  0  0  0  0  0  0  0  0
  -48.1364   57.0324   58.3265 C   0  0  0  0  0  0  0  0  0  0  0  0
  -46.7983   56.4576   58.4493 C   0  0  0  0  0  0  0  0  0  0  0  0
  -41.1063   59.7028   64.4035 O   0  0  0  0  0  0  0  0  0  0  0  0
  -39.6675   59.7848   64.2983 C   0  0  0  0  0  0  0  0  0  0  0  0
  -39.3518   61.0220   63.4896 C   0  0  0  0  0  0  0  0  0  0  0  0
  -38.5997   61.9345   64.2895 O   0  0  0  0  0  0  0  0  0  0  0  0
  -37.7489   61.5326   64.5251 H   0  0  0  0  0  0  0  0  0  0  0  0
  -38.5906   60.7719   62.2103 C   0  0  0  0  0  0  0  0  0  0  0  0
  -37.5510   59.8088   62.4757 O   0  0  0  0  0  0  0  0  0  0  0  0
  -37.3598   58.5685   61.4987 P   0  0  0  0  0  0  0  0  0  0  0  0
  -37.9414   57.3913   62.1748 O   0  0  0  0  0  0  0  0  0  0  0  0
  -37.8884   58.9761   60.1821 O   0  0  0  0  0  0  0  0  0  0  0  0
  -38.8416   59.1412   60.2535 H   0  0  0  0  0  0  0  0  0  0  0  0
  -35.8041   58.3133   61.3209 O   0  0  0  0  0  0  0  0  0  0  0  0
  -35.1273   57.3748   62.1899 C   0  0  0  0  0  0  0  0  0  0  0  0
  -34.0622   58.1708   62.9092 C   0  0  0  0  0  0  0  0  0  0  0  0
  -34.3746   58.5687   64.3381 N   0  0  0  0  0  0  0  0  0  0  0  0
  -34.7297   60.0180   64.4287 C   0  0  0  0  0  0  0  0  0  0  0  0
  -33.1801   58.3147   65.2007 C   0  0  0  0  0  0  0  0  0  0  0  0
  -35.5288   57.7607   64.8425 C   0  0  0  0  0  0  0  0  0  0  0  0
 34 33  1  0  0  0
 34 35  1  0  0  0
 34 36  1  0  0  0
 34 37  1  0  0  0
 22 23  1  0  0  0
 22 25  1  0  0  0
 22 21  1  0  0  0
 27 26  1  0  0  0
 27 28  2  0  0  0
 27 31  1  0  0  0
 27 29  1  0  0  0
 25 26  1  0  0  0
 32 33  1  0  0  0
 32 31  1  0  0  0
 20 21  1  0  0  0
 20  2  1  0  0  0
  1  2  2  0  0  0
  2  3  1  0  0  0
  3  4  1  0  0  0
  4  5  1  0  0  0
  5  6  1  0  0  0
  6  7  1  0  0  0
  7  8  1  0  0  0
  8  9  1  0  0  0
  9 10  1  0  0  0
 10 11  2  0  0  0
 11 12  1  0  0  0
 12 13  1  0  0  0
 13 14  1  0  0  0
 14 15  1  0  0  0
 15 16  1  0  0  0
 16 17  1  0  0  0
 17 18  1  0  0  0
 18 19  1  0  0  0
 23 24  1  0  0  0
 29 30  1  0  0  0
M  CHG 1  28  -1
M  END
> <minimizedAffinity>
-7.96021

> <CNNscore>
0.7835860252

> <CNNaffinity>
6.7501220703

> <CNN_VS>
5.2893013954

> <CNNaffinity_variance>
0.5285971761

$$$$



 37 36  0  0  0  0  0  0  0  0999 V2000
  -43.1390   60.1333   66.5292 O   0  0  0  0  0  0  0  0  0  0  0  0
  -42.9642   59.4545   65.5639 C   0  0  0  0  0  0  0  0  0  0  0  0
  -44.0570   58.8342   64.7563 C   0  0  0  0  0  0  0  0  0  0  0  0
  -44.6104   57.5689   65.3842 C   0  0  0  0  0  0  0  0  0  0  0  0
  -45.9938   57.7574   65.9683 C   0  0  0  0  0  0  0  0  0  0  0  0
  -46.5414   59.1594   65.8412 C   0  0  0  0  0  0  0  0  0  0  0  0
  -47.6512   59.2918   64.8296 C   0  0  0  0  0  0  0  0  0  0  0  0
  -48.5012   58.0526   64.7446 C   0  0  0  0  0  0  0  0  0  0  0  0
  -49.9391   58.2301   65.1333 C   0  0  0  0  0  0  0  0  0  0  0  0
  -50.3684   59.6359   65.1523 C   0  0  0  0  0  0  0  0  0  0  0  0
  -51.0173   60.2960   64.2185 C   0  0  0  0  0  0  0  0  0  0  0  0
  -51.5051   59.7876   62.9117 C   0  0  0  0  0  0  0  0  0  0  0  0
  -50.4296   59.4499   61.8995 C   0  0  0  0  0  0  0  0  0  0  0  0
  -50.5678   58.0579   61.3469 C   0  0  0  0  0  0  0  0  0  0  0  0
  -49.3022   57.2398   61.3781 C   0  0  0  0  0  0  0  0  0  0  0  0
  -49.0964   56.4385   60.1116 C   0  0  0  0  0  0  0  0  0  0  0  0
  -48.8573   57.2589   58.8749 C   0  0  0  0  0  0  0  0  0  0  0  0
  -48.0534   56.5548   57.8564 C   0  0  0  0  0  0  0  0  0  0  0  0
  -46.9732   55.7505   58.4241 C   0  0  0  0  0  0  0  0  0  0  0  0
  -41.7603   59.1506   65.0790 O   0  0  0  0  0  0  0  0  0  0  0  0
  -40.6185   59.8202   65.6587 C   0  0  0  0  0  0  0  0  0  0  0  0
  -40.4942   61.1604   64.9710 C   0  0  0  0  0  0  0  0  0  0  0  0
  -40.5222   62.2011   65.9478 O   0  0  0  0  0  0  0  0  0  0  0  0
  -39.7526   62.1168   66.5322 H   0  0  0  0  0  0  0  0  0  0  0  0
  -39.2544   61.3329   64.1274 C   0  0  0  0  0  0  0  0  0  0  0  0
  -38.3447   62.2093   64.8226 O   0  0  0  0  0  0  0  0  0  0  0  0
  -36.9664   61.6368   65.3718 P   0  0  0  0  0  0  0  0  0  0  0  0
  -36.0795   62.7943   65.6060 O   0  0  0  0  0  0  0  0  0  0  0  0
  -37.2940   60.7420   66.4991 O   0  0  0  0  0  0  0  0  0  0  0  0
  -37.6964   61.2580   67.2152 H   0  0  0  0  0  0  0  0  0  0  0  0
  -36.3145   60.7410   64.2362 O   0  0  0  0  0  0  0  0  0  0  0  0
  -36.2345   59.3069   64.4113 C   0  0  0  0  0  0  0  0  0  0  0  0
  -36.0631   58.7295   63.0246 C   0  0  0  0  0  0  0  0  0  0  0  0
  -37.3053   58.1395   62.3871 N   0  0  0  0  0  0  0  0  0  0  0  0
  -36.9874   56.8743   61.6570 C   0  0  0  0  0  0  0  0  0  0  0  0
  -37.8827   59.1191   61.4162 C   0  0  0  0  0  0  0  0  0  0  0  0
  -38.3182   57.8390   63.4468 C   0  0  0  0  0  0  0  0  0  0  0  0
 34 33  1  0  0  0
 34 35  1  0  0  0
 34 36  1  0  0  0
 34 37  1  0  0  0
 22 23  1  0  0  0
 22 25  1  0  0  0
 22 21  1  0  0  0
 27 26  1  0  0  0
 27 28  2  0  0  0
 27 31  1  0  0  0
 27 29  1  0  0  0
 25 26  1  0  0  0
 32 33  1  0  0  0
 32 31  1  0  0  0
 20 21  1  0  0  0
 20  2  1  0  0  0
  1  2  2  0  0  0
  2  3  1  0  0  0
  3  4  1  0  0  0
  4  5  1  0  0  0
  5  6  1  0  0  0
  6  7  1  0  0  0
  7  8  1  0  0  0
  8  9  1  0  0  0
  9 10  1  0  0  0
 10 11  2  0  0  0
 11 12  1  0  0  0
 12 13  1  0  0  0
 13 14  1  0  0  0
 14 15  1  0  0  0
 15 16  1  0  0  0
 16 17  1  0  0  0
 17 18  1  0  0  0
 18 19  1  0  0  0
 23 24  1  0  0  0
 29 30  1  0  0  0
M  CHG 1  28  -1
M  END
> <minimizedAffinity>
-8.11074

> <CNNscore>
0.7656869888

> <CNNaffinity>
6.9677276611

> <CNN_VS>
5.3350982666

> <CNNaffinity_variance>
0.3035886884

$$$$



 37 36  0  0  0  0  0  0  0  0999 V2000
  -44.6490   57.9214   64.0367 O   0  0  0  0  0  0  0  0  0  0  0  0
  -44.3166   57.4273   65.0703 C   0  0  0  0  0  0  0  0  0  0  0  0
  -45.2610   56.9932   66.1431 C   0  0  0  0  0  0  0  0  0  0  0  0
  -46.5919   57.7192   66.0879 C   0  0  0  0  0  0  0  0  0  0  0  0
  -46.5474   59.0819   66.7447 C   0  0  0  0  0  0  0  0  0  0  0  0
  -47.5099   60.0897   66.1618 C   0  0  0  0  0  0  0  0  0  0  0  0
  -47.3743   60.2719   64.6716 C   0  0  0  0  0  0  0  0  0  0  0  0
  -48.5612   60.9745   64.0689 C   0  0  0  0  0  0  0  0  0  0  0  0
  -49.9022   60.4647   64.5070 C   0  0  0  0  0  0  0  0  0  0  0  0
  -50.0517   59.0104   64.3524 C   0  0  0  0  0  0  0  0  0  0  0  0
  -50.3420   58.3389   63.2599 C   0  0  0  0  0  0  0  0  0  0  0  0
  -50.5719   58.8724   61.8936 C   0  0  0  0  0  0  0  0  0  0  0  0
  -49.6091   58.3835   60.8309 C   0  0  0  0  0  0  0  0  0  0  0  0
  -50.2853   57.5630   59.7671 C   0  0  0  0  0  0  0  0  0  0  0  0
  -49.3655   57.0476   58.6900 C   0  0  0  0  0  0  0  0  0  0  0  0
  -48.3281   56.0841   59.2230 C   0  0  0  0  0  0  0  0  0  0  0  0
  -46.9908   56.1514   58.5397 C   0  0  0  0  0  0  0  0  0  0  0  0
  -46.9619   55.4390   57.2471 C   0  0  0  0  0  0  0  0  0  0  0  0
  -47.2728   56.2964   56.1049 C   0  0  0  0  0  0  0  0  0  0  0  0
  -43.0476   57.2027   65.4109 O   0  0  0  0  0  0  0  0  0  0  0  0
  -42.4865   58.0130   66.4675 C   0  0  0  0  0  0  0  0  0  0  0  0
  -42.4944   59.4439   65.9807 C   0  0  0  0  0  0  0  0  0  0  0  0
  -42.2169   60.3199   67.0732 O   0  0  0  0  0  0  0  0  0  0  0  0
  -41.3234   60.1459   67.4083 H   0  0  0  0  0  0  0  0  0  0  0  0
  -41.5188   59.7458   64.8692 C   0  0  0  0  0  0  0  0  0  0  0  0
  -40.2125   59.9441   65.4464 O   0  0  0  0  0  0  0  0  0  0  0  0
  -39.4300   61.3015   65.1737 P   0  0  0  0  0  0  0  0  0  0  0  0
  -39.2851   61.4310   63.7097 O   0  0  0  0  0  0  0  0  0  0  0  0
  -40.1356   62.3596   65.9231 O   0  0  0  0  0  0  0  0  0  0  0  0
  -41.0307   62.4673   65.5652 H   0  0  0  0  0  0  0  0  0  0  0  0
  -37.9785   61.1711   65.8007 O   0  0  0  0  0  0  0  0  0  0  0  0
  -36.9378   62.0922   65.3981 C   0  0  0  0  0  0  0  0  0  0  0  0
  -36.0025   61.2992   64.5137 C   0  0  0  0  0  0  0  0  0  0  0  0
  -34.5326   61.3477   64.8807 N   0  0  0  0  0  0  0  0  0  0  0  0
  -33.8412   60.0763   64.5057 C   0  0  0  0  0  0  0  0  0  0  0  0
  -34.3916   61.5512   66.3552 C   0  0  0  0  0  0  0  0  0  0  0  0
  -33.8731   62.4815   64.1604 C   0  0  0  0  0  0  0  0  0  0  0  0
 34 33  1  0  0  0
 34 35  1  0  0  0
 34 36  1  0  0  0
 34 37  1  0  0  0
 22 23  1  0  0  0
 22 25  1  0  0  0
 22 21  1  0  0  0
 27 26  1  0  0  0
 27 28  2  0  0  0
 27 31  1  0  0  0
 27 29  1  0  0  0
 25 26  1  0  0  0
 32 33  1  0  0  0
 32 31  1  0  0  0
 20 21  1  0  0  0
 20  2  1  0  0  0
  1  2  2  0  0  0
  2  3  1  0  0  0
  3  4  1  0  0  0
  4  5  1  0  0  0
  5  6  1  0  0  0
  6  7  1  0  0  0
  7  8  1  0  0  0
  8  9  1  0  0  0
  9 10  1  0  0  0
 10 11  2  0  0  0
 11 12  1  0  0  0
 12 13  1  0  0  0
 13 14  1  0  0  0
 14 15  1  0  0  0
 15 16  1  0  0  0
 16 17  1  0  0  0
 17 18  1  0  0  0
 18 19  1  0  0  0
 23 24  1  0  0  0
 29 30  1  0  0  0
M  CHG 1  28  -1
M  END
> <minimizedAffinity>
-7.74289

> <CNNscore>
0.7046406269

> <CNNaffinity>
6.5225920677

> <CNN_VS>
4.5960831642

> <CNNaffinity_variance>
0.4323862493

$$$$



 37 36  0  0  0  0  0  0  0  0999 V2000
  -42.5819   60.4714   67.0979 O   0  0  0  0  0  0  0  0  0  0  0  0
  -42.5755   60.0432   65.9845 C   0  0  0  0  0  0  0  0  0  0  0  0
  -43.8000   59.7968   65.1654 C   0  0  0  0  0  0  0  0  0  0  0  0
  -44.4972   58.4973   65.5212 C   0  0  0  0  0  0  0  0  0  0  0  0
  -45.8471   58.7116   66.1712 C   0  0  0  0  0  0  0  0  0  0  0  0
  -46.7126   59.7457   65.4906 C   0  0  0  0  0  0  0  0  0  0  0  0
  -47.7154   59.1638   64.5271 C   0  0  0  0  0  0  0  0  0  0  0  0
  -48.4622   57.9953   65.1121 C   0  0  0  0  0  0  0  0  0  0  0  0
  -49.9579   58.1019   65.0725 C   0  0  0  0  0  0  0  0  0  0  0  0
  -50.4480   59.4801   65.2196 C   0  0  0  0  0  0  0  0  0  0  0  0
  -51.0142   60.2388   64.3072 C   0  0  0  0  0  0  0  0  0  0  0  0
  -51.3267   59.8935   62.8974 C   0  0  0  0  0  0  0  0  0  0  0  0
  -50.2167   60.1540   61.8997 C   0  0  0  0  0  0  0  0  0  0  0  0
  -49.6704   58.8901   61.2946 C   0  0  0  0  0  0  0  0  0  0  0  0
  -50.6717   57.7711   61.1636 C   0  0  0  0  0  0  0  0  0  0  0  0
  -50.1874   56.6605   60.2576 C   0  0  0  0  0  0  0  0  0  0  0  0
  -49.1180   57.0615   59.2801 C   0  0  0  0  0  0  0  0  0  0  0  0
  -47.9629   56.1424   59.2727 C   0  0  0  0  0  0  0  0  0  0  0  0
  -47.4561   55.8582   57.9315 C   0  0  0  0  0  0  0  0  0  0  0  0
  -41.4659   59.7175   65.3215 O   0  0  0  0  0  0  0  0  0  0  0  0
  -40.9719   60.6592   64.3432 C   0  0  0  0  0  0  0  0  0  0  0  0
  -39.8405   61.4217   64.9936 C   0  0  0  0  0  0  0  0  0  0  0  0
  -40.3753   62.3795   65.9072 O   0  0  0  0  0  0  0  0  0  0  0  0
  -40.8453   61.9191   66.6200 H   0  0  0  0  0  0  0  0  0  0  0  0
  -38.8368   60.5693   65.7314 C   0  0  0  0  0  0  0  0  0  0  0  0
  -37.6220   60.5166   64.9567 O   0  0  0  0  0  0  0  0  0  0  0  0
  -36.6704   61.7896   64.8988 P   0  0  0  0  0  0  0  0  0  0  0  0
  -36.8516   62.4052   63.5686 O   0  0  0  0  0  0  0  0  0  0  0  0
  -36.9531   62.5899   66.1064 O   0  0  0  0  0  0  0  0  0  0  0  0
  -37.8672   62.9129   66.0736 H   0  0  0  0  0  0  0  0  0  0  0  0
  -35.1683   61.2906   65.0079 O   0  0  0  0  0  0  0  0  0  0  0  0
  -34.1270   61.9861   64.2829 C   0  0  0  0  0  0  0  0  0  0  0  0
  -33.5905   63.0334   65.2320 C   0  0  0  0  0  0  0  0  0  0  0  0
  -33.2694   64.3849   64.6253 N   0  0  0  0  0  0  0  0  0  0  0  0
  -32.8091   65.3493   65.6707 C   0  0  0  0  0  0  0  0  0  0  0  0
  -34.4915   64.9408   63.9674 C   0  0  0  0  0  0  0  0  0  0  0  0
  -32.1856   64.2316   63.6049 C   0  0  0  0  0  0  0  0  0  0  0  0
 34 33  1  0  0  0
 34 35  1  0  0  0
 34 36  1  0  0  0
 34 37  1  0  0  0
 22 23  1  0  0  0
 22 25  1  0  0  0
 22 21  1  0  0  0
 27 26  1  0  0  0
 27 28  2  0  0  0
 27 31  1  0  0  0
 27 29  1  0  0  0
 25 26  1  0  0  0
 32 33  1  0  0  0
 32 31  1  0  0  0
 20 21  1  0  0  0
 20  2  1  0  0  0
  1  2  2  0  0  0
  2  3  1  0  0  0
  3  4  1  0  0  0
  4  5  1  0  0  0
  5  6  1  0  0  0
  6  7  1  0  0  0
  7  8  1  0  0  0
  8  9  1  0  0  0
  9 10  1  0  0  0
 10 11  2  0  0  0
 11 12  1  0  0  0
 12 13  1  0  0  0
 13 14  1  0  0  0
 14 15  1  0  0  0
 15 16  1  0  0  0
 16 17  1  0  0  0
 17 18  1  0  0  0
 18 19  1  0  0  0
 23 24  1  0  0  0
 29 30  1  0  0  0
M  CHG 1  28  -1
M  END
> <minimizedAffinity>
-8.06412

> <CNNscore>
0.7019976974

> <CNNaffinity>
6.2832612991

> <CNN_VS>
4.4108347893

> <CNNaffinity_variance>
0.2355909050

$$$$



 37 36  0  0  0  0  0  0  0  0999 V2000
  -41.7705   60.6244   63.0060 O   0  0  0  0  0  0  0  0  0  0  0  0
  -42.0251   60.3020   64.1259 C   0  0  0  0  0  0  0  0  0  0  0  0
  -43.3977   59.9895   64.6253 C   0  0  0  0  0  0  0  0  0  0  0  0
  -43.5271   58.5717   65.1494 C   0  0  0  0  0  0  0  0  0  0  0  0
  -44.9558   58.0726   65.1520 C   0  0  0  0  0  0  0  0  0  0  0  0
  -45.9972   59.1557   65.3083 C   0  0  0  0  0  0  0  0  0  0  0  0
  -47.3709   58.7545   64.8350 C   0  0  0  0  0  0  0  0  0  0  0  0
  -48.1997   59.9368   64.4100 C   0  0  0  0  0  0  0  0  0  0  0  0
  -49.6713   59.8209   64.6766 C   0  0  0  0  0  0  0  0  0  0  0  0
  -50.5024   60.4604   63.6464 C   0  0  0  0  0  0  0  0  0  0  0  0
  -51.0874   59.8953   62.6134 C   0  0  0  0  0  0  0  0  0  0  0  0
  -51.0797   58.4606   62.2312 C   0  0  0  0  0  0  0  0  0  0  0  0
  -49.9081   58.0180   61.3787 C   0  0  0  0  0  0  0  0  0  0  0  0
  -50.3367   57.2859   60.1367 C   0  0  0  0  0  0  0  0  0  0  0  0
  -49.3122   57.2683   59.0313 C   0  0  0  0  0  0  0  0  0  0  0  0
  -48.3332   56.1225   59.1638 C   0  0  0  0  0  0  0  0  0  0  0  0
  -46.9397   56.4217   58.6858 C   0  0  0  0  0  0  0  0  0  0  0  0
  -46.8490   56.5806   57.2210 C   0  0  0  0  0  0  0  0  0  0  0  0
  -47.2973   55.4028   56.4807 C   0  0  0  0  0  0  0  0  0  0  0  0
  -41.1119   60.1850   65.0899 O   0  0  0  0  0  0  0  0  0  0  0  0
  -40.0648   59.2069   64.9025 C   0  0  0  0  0  0  0  0  0  0  0  0
  -38.7836   59.9704   64.6578 C   0  0  0  0  0  0  0  0  0  0  0  0
  -38.7345   60.3936   63.2952 O   0  0  0  0  0  0  0  0  0  0  0  0
  -39.4625   61.0108   63.1219 H   0  0  0  0  0  0  0  0  0  0  0  0
  -38.5820   61.1793   65.5389 C   0  0  0  0  0  0  0  0  0  0  0  0
  -37.3052   61.0591   66.1979 O   0  0  0  0  0  0  0  0  0  0  0  0
  -36.0352   61.8009   65.5929 P   0  0  0  0  0  0  0  0  0  0  0  0
  -34.8434   61.0487   66.0346 O   0  0  0  0  0  0  0  0  0  0  0  0
  -36.2857   61.9678   64.1478 O   0  0  0  0  0  0  0  0  0  0  0  0
  -36.3371   61.0959   63.7258 H   0  0  0  0  0  0  0  0  0  0  0  0
  -35.9614   63.2534   66.2269 O   0  0  0  0  0  0  0  0  0  0  0  0
  -34.6857   63.9293   66.3248 C   0  0  0  0  0  0  0  0  0  0  0  0
  -34.6289   64.8784   65.1494 C   0  0  0  0  0  0  0  0  0  0  0  0
  -33.2813   65.0229   64.4705 N   0  0  0  0  0  0  0  0  0  0  0  0
  -32.7115   63.6877   64.1139 C   0  0  0  0  0  0  0  0  0  0  0  0
  -32.3297   65.7182   65.3904 C   0  0  0  0  0  0  0  0  0  0  0  0
  -33.4347   65.8277   63.2182 C   0  0  0  0  0  0  0  0  0  0  0  0
 34 33  1  0  0  0
 34 35  1  0  0  0
 34 36  1  0  0  0
 34 37  1  0  0  0
 22 23  1  0  0  0
 22 25  1  0  0  0
 22 21  1  0  0  0
 27 26  1  0  0  0
 27 28  2  0  0  0
 27 31  1  0  0  0
 27 29  1  0  0  0
 25 26  1  0  0  0
 32 33  1  0  0  0
 32 31  1  0  0  0
 20 21  1  0  0  0
 20  2  1  0  0  0
  1  2  2  0  0  0
  2  3  1  0  0  0
  3  4  1  0  0  0
  4  5  1  0  0  0
  5  6  1  0  0  0
  6  7  1  0  0  0
  7  8  1  0  0  0
  8  9  1  0  0  0
  9 10  1  0  0  0
 10 11  2  0  0  0
 11 12  1  0  0  0
 12 13  1  0  0  0
 13 14  1  0  0  0
 14 15  1  0  0  0
 15 16  1  0  0  0
 16 17  1  0  0  0
 17 18  1  0  0  0
 18 19  1  0  0  0
 23 24  1  0  0  0
 29 30  1  0  0  0
M  CHG 1  28  -1
M  END
> <minimizedAffinity>
-7.81976

> <CNNscore>
0.6988752484

> <CNNaffinity>
6.2555284500

> <CNN_VS>
4.3718338013

> <CNNaffinity_variance>
0.6502367258

$$$$



 37 36  0  0  0  0  0  0  0  0999 V2000
  -40.2766   58.1448   64.8299 O   0  0  0  0  0  0  0  0  0  0  0  0
  -40.9717   59.0543   65.1654 C   0  0  0  0  0  0  0  0  0  0  0  0
  -42.1964   58.9170   66.0094 C   0  0  0  0  0  0  0  0  0  0  0  0
  -42.8763   57.5703   65.8493 C   0  0  0  0  0  0  0  0  0  0  0  0
  -44.1815   57.6560   65.0881 C   0  0  0  0  0  0  0  0  0  0  0  0
  -45.3485   56.9796   65.7681 C   0  0  0  0  0  0  0  0  0  0  0  0
  -46.2664   57.9299   66.4939 C   0  0  0  0  0  0  0  0  0  0  0  0
  -46.5739   59.1614   65.6850 C   0  0  0  0  0  0  0  0  0  0  0  0
  -47.6480   59.0005   64.6503 C   0  0  0  0  0  0  0  0  0  0  0  0
  -48.8465   58.3158   65.1559 C   0  0  0  0  0  0  0  0  0  0  0  0
  -50.0909   58.7396   65.1314 C   0  0  0  0  0  0  0  0  0  0  0  0
  -50.6126   60.0096   64.5663 C   0  0  0  0  0  0  0  0  0  0  0  0
  -51.3396   59.8857   63.2429 C   0  0  0  0  0  0  0  0  0  0  0  0
  -50.4131   59.5864   62.0965 C   0  0  0  0  0  0  0  0  0  0  0  0
  -50.5599   58.2045   61.5127 C   0  0  0  0  0  0  0  0  0  0  0  0
  -49.3973   57.8222   60.6235 C   0  0  0  0  0  0  0  0  0  0  0  0
  -49.4025   56.3944   60.1530 C   0  0  0  0  0  0  0  0  0  0  0  0
  -48.2088   56.0390   59.3607 C   0  0  0  0  0  0  0  0  0  0  0  0
  -48.1857   56.6580   58.0369 C   0  0  0  0  0  0  0  0  0  0  0  0
  -40.7501   60.3231   64.8218 O   0  0  0  0  0  0  0  0  0  0  0  0
  -39.5248   60.6193   64.1156 C   0  0  0  0  0  0  0  0  0  0  0  0
  -38.7909   61.6668   64.9209 C   0  0  0  0  0  0  0  0  0  0  0  0
  -39.6909   62.2689   65.8512 O   0  0  0  0  0  0  0  0  0  0  0  0
  -39.9993   61.5998   66.4821 H   0  0  0  0  0  0  0  0  0  0  0  0
  -37.5886   61.1618   65.6810 C   0  0  0  0  0  0  0  0  0  0  0  0
  -36.8799   62.2941   66.2237 O   0  0  0  0  0  0  0  0  0  0  0  0
  -35.4341   62.6565   65.6692 P   0  0  0  0  0  0  0  0  0  0  0  0
  -34.4614   61.8578   66.4420 O   0  0  0  0  0  0  0  0  0  0  0  0
  -35.4878   62.5018   64.2022 O   0  0  0  0  0  0  0  0  0  0  0  0
  -35.6556   61.5723   63.9810 H   0  0  0  0  0  0  0  0  0  0  0  0
  -35.1584   64.1898   65.9693 O   0  0  0  0  0  0  0  0  0  0  0  0
  -34.5476   65.0207   64.9544 C   0  0  0  0  0  0  0  0  0  0  0  0
  -33.0554   64.8328   65.1085 C   0  0  0  0  0  0  0  0  0  0  0  0
  -32.2564   64.7393   63.8237 N   0  0  0  0  0  0  0  0  0  0  0  0
  -33.0479   65.2413   62.6590 C   0  0  0  0  0  0  0  0  0  0  0  0
  -31.8836   63.3140   63.5692 C   0  0  0  0  0  0  0  0  0  0  0  0
  -31.0118   65.5611   63.9464 C   0  0  0  0  0  0  0  0  0  0  0  0
 34 33  1  0  0  0
 34 35  1  0  0  0
 34 36  1  0  0  0
 34 37  1  0  0  0
 22 23  1  0  0  0
 22 25  1  0  0  0
 22 21  1  0  0  0
 27 26  1  0  0  0
 27 28  2  0  0  0
 27 31  1  0  0  0
 27 29  1  0  0  0
 25 26  1  0  0  0
 32 33  1  0  0  0
 32 31  1  0  0  0
 20 21  1  0  0  0
 20  2  1  0  0  0
  1  2  2  0  0  0
  2  3  1  0  0  0
  3  4  1  0  0  0
  4  5  1  0  0  0
  5  6  1  0  0  0
  6  7  1  0  0  0
  7  8  1  0  0  0
  8  9  1  0  0  0
  9 10  1  0  0  0
 10 11  2  0  0  0
 11 12  1  0  0  0
 12 13  1  0  0  0
 13 14  1  0  0  0
 14 15  1  0  0  0
 15 16  1  0  0  0
 16 17  1  0  0  0
 17 18  1  0  0  0
 18 19  1  0  0  0
 23 24  1  0  0  0
 29 30  1  0  0  0
M  CHG 1  28  -1
M  END
> <minimizedAffinity>
-7.94317

> <CNNscore>
0.6964009404

> <CNNaffinity>
6.2054257393

> <CNN_VS>
4.3214645386

> <CNNaffinity_variance>
0.4241890907

$$$$
