


 65 67  0  0  0  0  0  0  0  0999 V2000
  -36.7272   58.2420   64.4282 C   0  0  0  0  0  0  0  0  0  0  0  0
  -36.6383   59.4935   65.1831 N   0  0  0  0  0  0  0  0  0  0  0  0
  -38.6243   60.5230   64.7719 O   0  0  0  0  0  0  0  0  0  0  0  0
  -37.4730   60.5474   65.1869 C   0  0  0  0  0  0  0  0  0  0  0  0
  -35.8543   59.5749   65.7729 H   0  0  0  0  0  0  0  0  0  0  0  0
  -36.6630   62.7939   64.4961 N   0  0  0  0  0  0  0  0  0  0  0  0
  -34.7419   62.8535   65.6354 O   0  0  0  0  0  0  0  0  0  0  0  0
  -35.5573   61.9519   66.3829 C   0  0  0  0  0  0  0  0  0  0  0  0
  -35.5041   63.2984   64.4956 C   0  0  0  0  0  0  0  0  0  0  0  0
  -36.9182   61.8917   65.6352 C   0  0  0  0  0  0  0  0  0  0  0  0
  -36.3939   63.4412   61.7416 O   0  0  0  0  0  0  0  0  0  0  0  0
  -35.4718   64.3130   62.1676 C   0  0  0  0  0  0  0  0  0  0  0  0
  -34.9719   65.2793   61.2849 C   0  0  0  0  0  0  0  0  0  0  0  0
  -33.9968   66.1995   61.7050 C   0  0  0  0  0  0  0  0  0  0  0  0
  -33.5177   66.1703   63.0159 C   0  0  0  0  0  0  0  0  0  0  0  0
  -34.0179   65.2123   63.9022 C   0  0  0  0  0  0  0  0  0  0  0  0
  -34.9887   64.2832   63.4815 C   0  0  0  0  0  0  0  0  0  0  0  0
  -36.7024   63.4802   60.8577 H   0  0  0  0  0  0  0  0  0  0  0  0
  -35.0471   56.9125   63.3580 O   0  0  0  0  0  0  0  0  0  0  0  0
  -35.3008   57.8152   64.1386 C   0  0  0  0  0  0  0  0  0  0  0  0
  -34.1897   58.4479   64.8571 O   0  0  0  0  0  0  0  0  0  0  0  0
  -33.3671   59.4508   64.2314 C   0  0  0  0  0  0  0  0  0  0  0  0
  -34.1212   60.4046   63.3131 C   0  0  0  0  0  0  0  0  0  0  0  0
  -32.2392   58.7506   63.4885 C   0  0  0  0  0  0  0  0  0  0  0  0
  -30.5728   60.4170   62.8236 N   0  0  0  0  0  0  0  0  0  0  0  0
  -31.9652   59.4829   61.3056 O   0  0  0  0  0  0  0  0  0  0  0  0
  -31.5845   59.6222   62.4454 C   0  0  0  0  0  0  0  0  0  0  0  0
  -30.4691   60.5994   63.7854 H   0  0  0  0  0  0  0  0  0  0  0  0
  -29.2375   63.2572   62.8970 N   0  0  0  0  0  0  0  0  0  0  0  0
  -27.5067   61.8489   62.6029 O   0  0  0  0  0  0  0  0  0  0  0  0
  -30.6711   63.5347   63.0690 C   0  0  0  0  0  0  0  0  0  0  0  0
  -31.3931   63.5363   61.7084 C   0  0  0  0  0  0  0  0  0  0  0  0
  -30.5517   63.0825   60.5269 C   0  0  0  0  0  0  0  0  0  0  0  0
  -30.1782   61.5993   60.5926 C   0  0  0  0  0  0  0  0  0  0  0  0
  -29.6094   61.0341   61.9047 C   0  0  0  0  0  0  0  0  0  0  0  0
  -28.7037   62.0858   62.5151 C   0  0  0  0  0  0  0  0  0  0  0  0
  -28.8020   65.9604   62.7339 Si  0  0  0  0  0  0  0  0  0  0  0  0
  -28.3731   64.2775   63.1576 O   0  0  0  0  0  0  0  0  0  0  0  0
  -27.7406   66.8273   63.1058 H   0  0  0  0  0  0  0  0  0  0  0  0
  -29.9842   66.3360   63.4251 H   0  0  0  0  0  0  0  0  0  0  0  0
  -29.0219   66.0548   61.3342 H   0  0  0  0  0  0  0  0  0  0  0  0
  -37.0640   58.8041   61.8856 C   0  0  0  0  0  0  0  0  0  0  0  0
  -37.6448   58.2252   63.1815 C   0  0  0  0  0  0  0  0  0  0  0  0
  -38.0679   59.1928   60.7871 C   0  0  0  0  0  0  0  0  0  0  0  0
  -39.5107   59.5190   61.2247 C   0  0  0  0  0  0  0  0  0  0  0  0
  -40.3890   58.4450   60.7505 N   0  0  0  0  0  0  0  0  0  0  0  0
  -41.5807   58.0284   61.2545 C   0  0  0  0  0  0  0  0  0  0  0  0
  -39.9061   57.7738   59.6183 O   0  0  0  0  0  0  0  0  0  0  0  0
  -42.1744   57.0644   60.7718 O   0  0  0  0  0  0  0  0  0  0  0  0
  -40.5338   57.0804   59.3613 H   0  0  0  0  0  0  0  0  0  0  0  0
  -42.1891   58.7837   62.4408 C   0  0  0  0  0  0  0  0  0  0  0  0
  -43.4150   58.1040   63.0659 C   0  0  0  0  0  0  0  0  0  0  0  0
  -42.9966   57.3045   64.3148 C   0  0  0  0  0  0  0  0  0  0  0  0
  -44.1415   57.0972   65.3245 C   0  0  0  0  0  0  0  0  0  0  0  0
  -45.0004   58.3486   65.5860 C   0  0  0  0  0  0  0  0  0  0  0  0
  -46.0984   58.1125   66.6442 C   0  0  0  0  0  0  0  0  0  0  0  0
  -47.1080   59.2746   66.7917 C   0  0  0  0  0  0  0  0  0  0  0  0
  -48.2544   59.2193   65.7753 C   0  0  0  0  0  0  0  0  0  0  0  0
  -49.5131   60.0014   66.1636 C   0  0  0  0  0  0  0  0  0  0  0  0
  -50.7753   59.3792   65.5390 C   0  0  0  0  0  0  0  0  0  0  0  0
  -51.4584   60.2738   64.4935 C   0  0  0  0  0  0  0  0  0  0  0  0
  -51.8152   59.5945   63.1673 C   0  0  0  0  0  0  0  0  0  0  0  0
  -50.9699   58.3358   62.8498 C   0  0  0  0  0  0  0  0  0  0  0  0
  -51.4467   57.6467   61.5551 C   0  0  0  0  0  0  0  0  0  0  0  0
  -50.4158   56.8117   60.7862 C   0  0  0  0  0  0  0  0  0  0  0  0
 46 47  1  0  0  0
 46 48  1  0  0  0
 46 45  1  0  0  0
 47 49  2  0  0  0
 47 51  1  0  0  0
 19 20  2  0  0  0
 37 38  1  0  0  0
 38 29  1  0  0  0
 45 44  1  0  0  0
 25 27  1  0  0  0
 25 35  1  0  0  0
 21 20  1  0  0  0
 21 22  1  0  0  0
 44 42  1  0  0  0
  2  1  1  0  0  0
  2  4  1  0  0  0
 26 27  2  0  0  0
 42 43  2  0  0  0
 29 31  1  0  0  0
 29 36  1  0  0  0
  3  4  2  0  0  0
 43  1  1  0  0  0
  6  9  2  0  0  0
  6 10  1  0  0  0
  1 20  1  0  0  0
 30 36  2  0  0  0
  7  8  1  0  0  0
  7  9  1  0  0  0
 22 24  1  0  0  0
 22 23  1  0  0  0
 11 12  1  0  0  0
 24 27  1  0  0  0
  4 10  1  0  0  0
 51 52  1  0  0  0
 52 53  1  0  0  0
 53 54  1  0  0  0
 54 55  1  0  0  0
 55 56  1  0  0  0
 56 57  1  0  0  0
 57 58  1  0  0  0
 58 59  1  0  0  0
 59 60  1  0  0  0
 60 61  1  0  0  0
 61 62  1  0  0  0
 62 63  1  0  0  0
 63 64  1  0  0  0
 64 65  1  0  0  0
 31 32  1  0  0  0
 32 33  1  0  0  0
 33 34  1  0  0  0
 34 35  1  0  0  0
 35 36  1  0  0  0
  8 10  1  0  0  0
  9 17  1  0  0  0
 12 13  2  0  0  0
 12 17  1  0  0  0
 13 14  1  0  0  0
 14 15  2  0  0  0
 15 16  1  0  0  0
 16 17  2  0  0  0
 37 39  1  0  0  0
 37 40  1  0  0  0
 37 41  1  0  0  0
 48 50  1  0  0  0
 25 28  1  0  0  0
  2  5  1  0  0  0
 11 18  1  0  0  0
M  END
> <minimizedAffinity>
-9.47177

> <minimizedRMSD>
1.12670

> <CNNscore>
0.1965949833

> <CNNaffinity>
6.9119138718

> <CNN_VS>
1.3588476181

> <CNNaffinity_variance>
0.8971372843

$$$$
