


 37 36  0  0  0  0  0  0  0  0999 V2000
  -43.0625   59.7252   64.0331 O   0  0  0  0  0  0  0  0  0  0  0  0
  -42.1429   59.1494   64.5598 C   0  0  0  0  0  0  0  0  0  0  0  0
  -42.1109   57.6892   64.8922 C   0  0  0  0  0  0  0  0  0  0  0  0
  -43.4989   57.0778   65.0413 C   0  0  0  0  0  0  0  0  0  0  0  0
  -44.2038   57.4365   66.3383 C   0  0  0  0  0  0  0  0  0  0  0  0
  -45.7150   57.5061   66.2055 C   0  0  0  0  0  0  0  0  0  0  0  0
  -46.2603   58.9133   66.3787 C   0  0  0  0  0  0  0  0  0  0  0  0
  -46.7369   59.5069   65.0718 C   0  0  0  0  0  0  0  0  0  0  0  0
  -47.7553   58.6676   64.3272 C   0  0  0  0  0  0  0  0  0  0  0  0
  -48.9721   58.3587   65.1121 C   0  0  0  0  0  0  0  0  0  0  0  0
  -50.2041   58.7065   64.8022 C   0  0  0  0  0  0  0  0  0  0  0  0
  -50.6544   59.4461   63.5845 C   0  0  0  0  0  0  0  0  0  0  0  0
  -50.9601   58.4623   62.4539 C   0  0  0  0  0  0  0  0  0  0  0  0
  -49.8996   58.3686   61.3666 C   0  0  0  0  0  0  0  0  0  0  0  0
  -50.0544   57.1879   60.4157 C   0  0  0  0  0  0  0  0  0  0  0  0
  -49.1046   57.2374   59.2234 C   0  0  0  0  0  0  0  0  0  0  0  0
  -48.0262   56.1661   59.2547 C   0  0  0  0  0  0  0  0  0  0  0  0
  -47.2904   55.9439   57.9418 C   0  0  0  0  0  0  0  0  0  0  0  0
  -47.6031   56.9912   56.9176 C   0  0  0  0  0  0  0  0  0  0  0  0
  -40.9963   59.7348   64.9181 O   0  0  0  0  0  0  0  0  0  0  0  0
  -40.4000   60.6713   63.9940 C   0  0  0  0  0  0  0  0  0  0  0  0
  -39.2154   60.0662   63.2709 C   0  0  0  0  0  0  0  0  0  0  0  0
  -39.1740   60.4927   61.9024 O   0  0  0  0  0  0  0  0  0  0  0  0
  -39.0505   61.4542   61.8670 H   0  0  0  0  0  0  0  0  0  0  0  0
  -37.9000   60.3915   63.9389 C   0  0  0  0  0  0  0  0  0  0  0  0
  -37.4340   61.7183   63.5924 O   0  0  0  0  0  0  0  0  0  0  0  0
  -36.6643   62.8470   64.4347 P   0  0  0  0  0  0  0  0  0  0  0  0
  -37.2351   62.8577   65.8518 O   0  0  0  0  0  0  0  0  0  0  0  0
  -36.9256   64.1633   63.8122 O   0  0  0  0  0  0  0  0  0  0  0  0
  -37.8822   64.3197   63.7761 H   0  0  0  0  0  0  0  0  0  0  0  0
  -35.0502   62.5418   64.5157 O   0  0  0  0  0  0  0  0  0  0  0  0
  -34.2040   62.7311   65.6823 C   0  0  0  0  0  0  0  0  0  0  0  0
  -34.1861   64.1855   66.0830 C   0  0  0  0  0  0  0  0  0  0  0  0
  -33.0377   65.0210   65.5485 N   0  0  0  0  0  0  0  0  0  0  0  0
  -33.4132   65.6572   64.2488 C   0  0  0  0  0  0  0  0  0  0  0  0
  -31.8598   64.1291   65.3300 C   0  0  0  0  0  0  0  0  0  0  0  0
  -32.6704   66.0991   66.5279 C   0  0  0  0  0  0  0  0  0  0  0  0
 34 33  1  0  0  0
 34 35  1  0  0  0
 34 36  1  0  0  0
 34 37  1  0  0  0
 22 23  1  0  0  0
 22 25  1  0  0  0
 22 21  1  0  0  0
 27 26  1  0  0  0
 27 28  2  0  0  0
 27 31  1  0  0  0
 27 29  1  0  0  0
 25 26  1  0  0  0
 32 33  1  0  0  0
 32 31  1  0  0  0
 20 21  1  0  0  0
 20  2  1  0  0  0
  1  2  2  0  0  0
  2  3  1  0  0  0
  3  4  1  0  0  0
  4  5  1  0  0  0
  5  6  1  0  0  0
  6  7  1  0  0  0
  7  8  1  0  0  0
  8  9  1  0  0  0
  9 10  1  0  0  0
 10 11  2  0  0  0
 11 12  1  0  0  0
 12 13  1  0  0  0
 13 14  1  0  0  0
 14 15  1  0  0  0
 15 16  1  0  0  0
 16 17  1  0  0  0
 17 18  1  0  0  0
 18 19  1  0  0  0
 23 24  1  0  0  0
 29 30  1  0  0  0
M  CHG 1  28  -1
M  END
> <minimizedAffinity>
-7.84914

> <CNNscore>
0.7664176822

> <CNNaffinity>
6.4086637497

> <CNN_VS>
4.9117131233

> <CNNaffinity_variance>
0.3312196136

$$$$



 37 36  0  0  0  0  0  0  0  0999 V2000
  -43.9905   59.2812   63.3207 O   0  0  0  0  0  0  0  0  0  0  0  0
  -43.2839   58.5007   63.9090 C   0  0  0  0  0  0  0  0  0  0  0  0
  -43.7642   57.3197   64.6954 C   0  0  0  0  0  0  0  0  0  0  0  0
  -45.1458   57.5267   65.3045 C   0  0  0  0  0  0  0  0  0  0  0  0
  -45.1343   58.2039   66.6642 C   0  0  0  0  0  0  0  0  0  0  0  0
  -46.3570   59.0675   66.9196 C   0  0  0  0  0  0  0  0  0  0  0  0
  -46.4859   60.2172   65.9351 C   0  0  0  0  0  0  0  0  0  0  0  0
  -47.9178   60.4429   65.5035 C   0  0  0  0  0  0  0  0  0  0  0  0
  -48.7841   59.1998   65.5028 C   0  0  0  0  0  0  0  0  0  0  0  0
  -50.2381   59.4778   65.5320 C   0  0  0  0  0  0  0  0  0  0  0  0
  -50.9719   59.8780   64.5141 C   0  0  0  0  0  0  0  0  0  0  0  0
  -50.5201   60.1001   63.1073 C   0  0  0  0  0  0  0  0  0  0  0  0
  -50.8819   58.8925   62.2410 C   0  0  0  0  0  0  0  0  0  0  0  0
  -50.0542   58.7269   60.9749 C   0  0  0  0  0  0  0  0  0  0  0  0
  -50.2001   57.3777   60.2818 C   0  0  0  0  0  0  0  0  0  0  0  0
  -49.1594   57.1362   59.1933 C   0  0  0  0  0  0  0  0  0  0  0  0
  -48.2766   55.9248   59.4481 C   0  0  0  0  0  0  0  0  0  0  0  0
  -46.9917   55.8725   58.6352 C   0  0  0  0  0  0  0  0  0  0  0  0
  -47.2350   55.9631   57.1601 C   0  0  0  0  0  0  0  0  0  0  0  0
  -41.9496   58.5681   63.9363 O   0  0  0  0  0  0  0  0  0  0  0  0
  -41.2948   58.4516   65.2187 C   0  0  0  0  0  0  0  0  0  0  0  0
  -41.1904   59.7909   65.9169 C   0  0  0  0  0  0  0  0  0  0  0  0
  -41.6710   59.7080   67.2655 O   0  0  0  0  0  0  0  0  0  0  0  0
  -41.1136   59.0952   67.7702 H   0  0  0  0  0  0  0  0  0  0  0  0
  -39.7816   60.3364   65.9180 C   0  0  0  0  0  0  0  0  0  0  0  0
  -39.4235   60.9050   64.6351 O   0  0  0  0  0  0  0  0  0  0  0  0
  -38.4566   60.3957   63.4598 P   0  0  0  0  0  0  0  0  0  0  0  0
  -38.1380   61.5847   62.5547 O   0  0  0  0  0  0  0  0  0  0  0  0
  -39.1750   59.3771   62.6631 O   0  0  0  0  0  0  0  0  0  0  0  0
  -40.0002   59.7562   62.3222 H   0  0  0  0  0  0  0  0  0  0  0  0
  -37.0482   59.7926   64.0579 O   0  0  0  0  0  0  0  0  0  0  0  0
  -36.5639   58.4323   63.8908 C   0  0  0  0  0  0  0  0  0  0  0  0
  -35.4174   58.4036   62.9106 C   0  0  0  0  0  0  0  0  0  0  0  0
  -34.0272   58.5918   63.4890 N   0  0  0  0  0  0  0  0  0  0  0  0
  -33.0390   57.7323   62.7679 C   0  0  0  0  0  0  0  0  0  0  0  0
  -34.0524   58.1986   64.9296 C   0  0  0  0  0  0  0  0  0  0  0  0
  -33.5981   60.0266   63.3723 C   0  0  0  0  0  0  0  0  0  0  0  0
 34 33  1  0  0  0
 34 35  1  0  0  0
 34 36  1  0  0  0
 34 37  1  0  0  0
 22 23  1  0  0  0
 22 25  1  0  0  0
 22 21  1  0  0  0
 27 26  1  0  0  0
 27 28  2  0  0  0
 27 31  1  0  0  0
 27 29  1  0  0  0
 25 26  1  0  0  0
 32 33  1  0  0  0
 32 31  1  0  0  0
 20 21  1  0  0  0
 20  2  1  0  0  0
  1  2  2  0  0  0
  2  3  1  0  0  0
  3  4  1  0  0  0
  4  5  1  0  0  0
  5  6  1  0  0  0
  6  7  1  0  0  0
  7  8  1  0  0  0
  8  9  1  0  0  0
  9 10  1  0  0  0
 10 11  2  0  0  0
 11 12  1  0  0  0
 12 13  1  0  0  0
 13 14  1  0  0  0
 14 15  1  0  0  0
 15 16  1  0  0  0
 16 17  1  0  0  0
 17 18  1  0  0  0
 18 19  1  0  0  0
 23 24  1  0  0  0
 29 30  1  0  0  0
M  CHG 1  28  -1
M  END
> <minimizedAffinity>
-7.41302

> <CNNscore>
0.6980476975

> <CNNaffinity>
6.6855111122

> <CNN_VS>
4.6668057442

> <CNNaffinity_variance>
0.1520226002

$$$$



 37 36  0  0  0  0  0  0  0  0999 V2000
  -43.9948   59.7460   63.5259 O   0  0  0  0  0  0  0  0  0  0  0  0
  -43.0363   59.3138   64.1167 C   0  0  0  0  0  0  0  0  0  0  0  0
  -42.7246   57.8626   64.3185 C   0  0  0  0  0  0  0  0  0  0  0  0
  -43.7756   57.1333   65.1469 C   0  0  0  0  0  0  0  0  0  0  0  0
  -44.2026   57.8708   66.4044 C   0  0  0  0  0  0  0  0  0  0  0  0
  -45.6150   57.5365   66.8508 C   0  0  0  0  0  0  0  0  0  0  0  0
  -46.4703   58.7704   67.0824 C   0  0  0  0  0  0  0  0  0  0  0  0
  -46.7367   59.5303   65.8021 C   0  0  0  0  0  0  0  0  0  0  0  0
  -47.3937   58.7165   64.7058 C   0  0  0  0  0  0  0  0  0  0  0  0
  -48.6834   58.1048   65.0990 C   0  0  0  0  0  0  0  0  0  0  0  0
  -49.8671   58.6783   65.0294 C   0  0  0  0  0  0  0  0  0  0  0  0
  -50.1802   60.0427   64.5069 C   0  0  0  0  0  0  0  0  0  0  0  0
  -51.3340   59.9711   63.5053 C   0  0  0  0  0  0  0  0  0  0  0  0
  -51.2267   58.8659   62.4649 C   0  0  0  0  0  0  0  0  0  0  0  0
  -50.1037   59.0433   61.4501 C   0  0  0  0  0  0  0  0  0  0  0  0
  -49.4294   57.7343   61.0526 C   0  0  0  0  0  0  0  0  0  0  0  0
  -49.5614   57.4016   59.5749 C   0  0  0  0  0  0  0  0  0  0  0  0
  -48.3732   56.6758   58.9619 C   0  0  0  0  0  0  0  0  0  0  0  0
  -48.0345   57.1735   57.5904 C   0  0  0  0  0  0  0  0  0  0  0  0
  -42.0917   60.0761   64.6754 O   0  0  0  0  0  0  0  0  0  0  0  0
  -41.2675   60.8775   63.8007 C   0  0  0  0  0  0  0  0  0  0  0  0
  -39.8787   60.2935   63.6506 C   0  0  0  0  0  0  0  0  0  0  0  0
  -39.2058   60.8497   62.5130 O   0  0  0  0  0  0  0  0  0  0  0  0
  -39.0859   61.8035   62.6426 H   0  0  0  0  0  0  0  0  0  0  0  0
  -39.0292   60.4925   64.8839 C   0  0  0  0  0  0  0  0  0  0  0  0
  -38.0976   61.5898   64.7245 O   0  0  0  0  0  0  0  0  0  0  0  0
  -36.8953   62.1280   65.6414 P   0  0  0  0  0  0  0  0  0  0  0  0
  -36.9619   61.4078   66.9872 O   0  0  0  0  0  0  0  0  0  0  0  0
  -37.0876   63.5764   65.8728 O   0  0  0  0  0  0  0  0  0  0  0  0
  -37.9556   63.7265   66.2791 H   0  0  0  0  0  0  0  0  0  0  0  0
  -35.4323   61.8290   64.9521 O   0  0  0  0  0  0  0  0  0  0  0  0
  -35.1239   60.7345   64.0466 C   0  0  0  0  0  0  0  0  0  0  0  0
  -35.4536   59.4128   64.6950 C   0  0  0  0  0  0  0  0  0  0  0  0
  -35.4644   58.1972   63.7868 N   0  0  0  0  0  0  0  0  0  0  0  0
  -34.1333   58.0231   63.1287 C   0  0  0  0  0  0  0  0  0  0  0  0
  -36.5041   58.3975   62.7335 C   0  0  0  0  0  0  0  0  0  0  0  0
  -35.7834   56.9565   64.5713 C   0  0  0  0  0  0  0  0  0  0  0  0
 34 33  1  0  0  0
 34 35  1  0  0  0
 34 36  1  0  0  0
 34 37  1  0  0  0
 22 23  1  0  0  0
 22 25  1  0  0  0
 22 21  1  0  0  0
 27 26  1  0  0  0
 27 28  2  0  0  0
 27 31  1  0  0  0
 27 29  1  0  0  0
 25 26  1  0  0  0
 32 33  1  0  0  0
 32 31  1  0  0  0
 20 21  1  0  0  0
 20  2  1  0  0  0
  1  2  2  0  0  0
  2  3  1  0  0  0
  3  4  1  0  0  0
  4  5  1  0  0  0
  5  6  1  0  0  0
  6  7  1  0  0  0
  7  8  1  0  0  0
  8  9  1  0  0  0
  9 10  1  0  0  0
 10 11  2  0  0  0
 11 12  1  0  0  0
 12 13  1  0  0  0
 13 14  1  0  0  0
 14 15  1  0  0  0
 15 16  1  0  0  0
 16 17  1  0  0  0
 17 18  1  0  0  0
 18 19  1  0  0  0
 23 24  1  0  0  0
 29 30  1  0  0  0
M  CHG 1  28  -1
M  END
> <minimizedAffinity>
-7.52154

> <CNNscore>
0.6876008511

> <CNNaffinity>
6.6886434555

> <CNN_VS>
4.5991168022

> <CNNaffinity_variance>
0.0971326083

$$$$



 37 36  0  0  0  0  0  0  0  0999 V2000
  -43.9825   59.4611   63.4530 O   0  0  0  0  0  0  0  0  0  0  0  0
  -43.1737   58.9506   64.1878 C   0  0  0  0  0  0  0  0  0  0  0  0
  -43.0066   57.4777   64.4030 C   0  0  0  0  0  0  0  0  0  0  0  0
  -44.1029   56.8703   65.2700 C   0  0  0  0  0  0  0  0  0  0  0  0
  -44.4721   57.7034   66.4854 C   0  0  0  0  0  0  0  0  0  0  0  0
  -45.8537   57.3931   67.0338 C   0  0  0  0  0  0  0  0  0  0  0  0
  -46.8505   58.5145   66.7966 C   0  0  0  0  0  0  0  0  0  0  0  0
  -47.2833   58.5986   65.3498 C   0  0  0  0  0  0  0  0  0  0  0  0
  -48.6301   57.9710   65.0525 C   0  0  0  0  0  0  0  0  0  0  0  0
  -49.7825   58.7406   65.5740 C   0  0  0  0  0  0  0  0  0  0  0  0
  -50.5182   59.5937   64.8916 C   0  0  0  0  0  0  0  0  0  0  0  0
  -50.3863   59.9446   63.4452 C   0  0  0  0  0  0  0  0  0  0  0  0
  -51.4293   59.1868   62.6222 C   0  0  0  0  0  0  0  0  0  0  0  0
  -50.8921   58.0250   61.7993 C   0  0  0  0  0  0  0  0  0  0  0  0
  -50.2916   58.4123   60.4533 C   0  0  0  0  0  0  0  0  0  0  0  0
  -49.0076   57.6597   60.1199 C   0  0  0  0  0  0  0  0  0  0  0  0
  -48.9061   57.2376   58.6627 C   0  0  0  0  0  0  0  0  0  0  0  0
  -47.8372   56.1986   58.3585 C   0  0  0  0  0  0  0  0  0  0  0  0
  -47.1104   56.4726   57.0778 C   0  0  0  0  0  0  0  0  0  0  0  0
  -42.2870   59.6326   64.9188 O   0  0  0  0  0  0  0  0  0  0  0  0
  -40.9469   59.7701   64.3973 C   0  0  0  0  0  0  0  0  0  0  0  0
  -39.9147   59.2108   65.3533 C   0  0  0  0  0  0  0  0  0  0  0  0
  -39.3789   57.9728   64.8669 O   0  0  0  0  0  0  0  0  0  0  0  0
  -38.9158   58.1280   64.0288 H   0  0  0  0  0  0  0  0  0  0  0  0
  -38.7848   60.1781   65.6180 C   0  0  0  0  0  0  0  0  0  0  0  0
  -37.5786   59.8038   64.9091 O   0  0  0  0  0  0  0  0  0  0  0  0
  -37.0267   60.1710   63.4475 P   0  0  0  0  0  0  0  0  0  0  0  0
  -38.2183   60.2599   62.4956 O   0  0  0  0  0  0  0  0  0  0  0  0
  -36.1383   59.0807   62.9888 O   0  0  0  0  0  0  0  0  0  0  0  0
  -36.6249   58.2417   62.9981 H   0  0  0  0  0  0  0  0  0  0  0  0
  -36.2389   61.6148   63.4468 O   0  0  0  0  0  0  0  0  0  0  0  0
  -36.3427   62.6434   64.4686 C   0  0  0  0  0  0  0  0  0  0  0  0
  -35.0067   63.3147   64.6703 C   0  0  0  0  0  0  0  0  0  0  0  0
  -34.6653   63.7305   66.0892 N   0  0  0  0  0  0  0  0  0  0  0  0
  -33.8865   62.6556   66.7771 C   0  0  0  0  0  0  0  0  0  0  0  0
  -35.9367   63.9634   66.8374 C   0  0  0  0  0  0  0  0  0  0  0  0
  -33.8513   64.9930   66.0865 C   0  0  0  0  0  0  0  0  0  0  0  0
 34 33  1  0  0  0
 34 35  1  0  0  0
 34 36  1  0  0  0
 34 37  1  0  0  0
 22 23  1  0  0  0
 22 25  1  0  0  0
 22 21  1  0  0  0
 27 26  1  0  0  0
 27 28  2  0  0  0
 27 31  1  0  0  0
 27 29  1  0  0  0
 25 26  1  0  0  0
 32 33  1  0  0  0
 32 31  1  0  0  0
 20 21  1  0  0  0
 20  2  1  0  0  0
  1  2  2  0  0  0
  2  3  1  0  0  0
  3  4  1  0  0  0
  4  5  1  0  0  0
  5  6  1  0  0  0
  6  7  1  0  0  0
  7  8  1  0  0  0
  8  9  1  0  0  0
  9 10  1  0  0  0
 10 11  2  0  0  0
 11 12  1  0  0  0
 12 13  1  0  0  0
 13 14  1  0  0  0
 14 15  1  0  0  0
 15 16  1  0  0  0
 16 17  1  0  0  0
 17 18  1  0  0  0
 18 19  1  0  0  0
 23 24  1  0  0  0
 29 30  1  0  0  0
M  CHG 1  28  -1
M  END
> <minimizedAffinity>
-7.34557

> <CNNscore>
0.5698578358

> <CNNaffinity>
6.5599684715

> <CNN_VS>
3.7382495403

> <CNNaffinity_variance>
0.4370177686

$$$$



 37 36  0  0  0  0  0  0  0  0999 V2000
  -44.2695   59.2807   63.6529 O   0  0  0  0  0  0  0  0  0  0  0  0
  -43.3629   59.0305   64.4080 C   0  0  0  0  0  0  0  0  0  0  0  0
  -42.9487   57.6574   64.8400 C   0  0  0  0  0  0  0  0  0  0  0  0
  -44.0430   56.9101   65.5928 C   0  0  0  0  0  0  0  0  0  0  0  0
  -44.6546   57.6905   66.7437 C   0  0  0  0  0  0  0  0  0  0  0  0
  -46.1710   57.7540   66.6925 C   0  0  0  0  0  0  0  0  0  0  0  0
  -46.7075   59.1724   66.7807 C   0  0  0  0  0  0  0  0  0  0  0  0
  -47.2067   59.6792   65.4459 C   0  0  0  0  0  0  0  0  0  0  0  0
  -47.9998   58.6704   64.6402 C   0  0  0  0  0  0  0  0  0  0  0  0
  -49.3147   58.3281   65.2285 C   0  0  0  0  0  0  0  0  0  0  0  0
  -50.4319   59.0098   65.0803 C   0  0  0  0  0  0  0  0  0  0  0  0
  -50.6350   60.2439   64.2628 C   0  0  0  0  0  0  0  0  0  0  0  0
  -51.4172   59.9106   62.9913 C   0  0  0  0  0  0  0  0  0  0  0  0
  -50.6145   59.2319   61.8911 C   0  0  0  0  0  0  0  0  0  0  0  0
  -50.8125   57.7246   61.7854 C   0  0  0  0  0  0  0  0  0  0  0  0
  -50.4072   57.1504   60.4319 C   0  0  0  0  0  0  0  0  0  0  0  0
  -49.5336   58.0829   59.6079 C   0  0  0  0  0  0  0  0  0  0  0  0
  -48.6897   57.4081   58.5369 C   0  0  0  0  0  0  0  0  0  0  0  0
  -48.0642   56.1321   59.0104 C   0  0  0  0  0  0  0  0  0  0  0  0
  -42.5757   59.9534   64.9686 O   0  0  0  0  0  0  0  0  0  0  0  0
  -41.3054   60.2287   64.3383 C   0  0  0  0  0  0  0  0  0  0  0  0
  -40.1570   60.1051   65.3172 C   0  0  0  0  0  0  0  0  0  0  0  0
  -40.6299   59.7554   66.6251 O   0  0  0  0  0  0  0  0  0  0  0  0
  -41.0537   58.8834   66.5932 H   0  0  0  0  0  0  0  0  0  0  0  0
  -39.1208   59.0998   64.8720 C   0  0  0  0  0  0  0  0  0  0  0  0
  -38.0644   59.7214   64.1007 O   0  0  0  0  0  0  0  0  0  0  0  0
  -36.7685   59.1241   63.3660 P   0  0  0  0  0  0  0  0  0  0  0  0
  -36.4410   57.7728   63.9992 O   0  0  0  0  0  0  0  0  0  0  0  0
  -35.6295   60.0397   63.5956 O   0  0  0  0  0  0  0  0  0  0  0  0
  -35.4925   60.1525   64.5492 H   0  0  0  0  0  0  0  0  0  0  0  0
  -37.0356   58.9051   61.7579 O   0  0  0  0  0  0  0  0  0  0  0  0
  -38.0791   58.0807   61.1713 C   0  0  0  0  0  0  0  0  0  0  0  0
  -39.3557   58.8733   61.0363 C   0  0  0  0  0  0  0  0  0  0  0  0
  -40.6444   58.0749   60.9688 N   0  0  0  0  0  0  0  0  0  0  0  0
  -41.8264   58.9897   60.9378 C   0  0  0  0  0  0  0  0  0  0  0  0
  -40.7331   57.2080   62.1817 C   0  0  0  0  0  0  0  0  0  0  0  0
  -40.6660   57.2130   59.7386 C   0  0  0  0  0  0  0  0  0  0  0  0
 34 33  1  0  0  0
 34 35  1  0  0  0
 34 36  1  0  0  0
 34 37  1  0  0  0
 22 23  1  0  0  0
 22 25  1  0  0  0
 22 21  1  0  0  0
 27 26  1  0  0  0
 27 28  2  0  0  0
 27 31  1  0  0  0
 27 29  1  0  0  0
 25 26  1  0  0  0
 32 33  1  0  0  0
 32 31  1  0  0  0
 20 21  1  0  0  0
 20  2  1  0  0  0
  1  2  2  0  0  0
  2  3  1  0  0  0
  3  4  1  0  0  0
  4  5  1  0  0  0
  5  6  1  0  0  0
  6  7  1  0  0  0
  7  8  1  0  0  0
  8  9  1  0  0  0
  9 10  1  0  0  0
 10 11  2  0  0  0
 11 12  1  0  0  0
 12 13  1  0  0  0
 13 14  1  0  0  0
 14 15  1  0  0  0
 15 16  1  0  0  0
 16 17  1  0  0  0
 17 18  1  0  0  0
 18 19  1  0  0  0
 23 24  1  0  0  0
 29 30  1  0  0  0
M  CHG 1  28  -1
M  END
> <minimizedAffinity>
-7.37286

> <CNNscore>
0.5132732987

> <CNNaffinity>
6.8804244995

> <CNN_VS>
3.5315382481

> <CNNaffinity_variance>
0.4139079154

$$$$



 37 36  0  0  0  0  0  0  0  0999 V2000
  -43.8987   60.3909   63.7323 O   0  0  0  0  0  0  0  0  0  0  0  0
  -42.9393   59.7627   64.1060 C   0  0  0  0  0  0  0  0  0  0  0  0
  -42.9311   58.2980   64.4195 C   0  0  0  0  0  0  0  0  0  0  0  0
  -44.3174   57.7418   64.7219 C   0  0  0  0  0  0  0  0  0  0  0  0
  -44.5215   57.3240   66.1681 C   0  0  0  0  0  0  0  0  0  0  0  0
  -45.8303   57.8160   66.7604 C   0  0  0  0  0  0  0  0  0  0  0  0
  -45.9771   59.3267   66.6990 C   0  0  0  0  0  0  0  0  0  0  0  0
  -47.2833   59.7492   66.0644 C   0  0  0  0  0  0  0  0  0  0  0  0
  -47.8944   58.7265   65.1282 C   0  0  0  0  0  0  0  0  0  0  0  0
  -49.2238   58.2352   65.5563 C   0  0  0  0  0  0  0  0  0  0  0  0
  -50.3882   58.6609   65.1116 C   0  0  0  0  0  0  0  0  0  0  0  0
  -50.6302   59.6931   64.0588 C   0  0  0  0  0  0  0  0  0  0  0  0
  -51.1445   59.0303   62.7798 C   0  0  0  0  0  0  0  0  0  0  0  0
  -50.0697   58.4917   61.8470 C   0  0  0  0  0  0  0  0  0  0  0  0
  -50.5777   57.5775   60.7386 C   0  0  0  0  0  0  0  0  0  0  0  0
  -49.9384   57.8523   59.3814 C   0  0  0  0  0  0  0  0  0  0  0  0
  -48.7628   56.9423   59.0627 C   0  0  0  0  0  0  0  0  0  0  0  0
  -48.1012   57.1810   57.7137 C   0  0  0  0  0  0  0  0  0  0  0  0
  -47.2724   56.0185   57.2608 C   0  0  0  0  0  0  0  0  0  0  0  0
  -41.7227   60.2853   64.2859 O   0  0  0  0  0  0  0  0  0  0  0  0
  -41.1200   60.9876   63.1767 C   0  0  0  0  0  0  0  0  0  0  0  0
  -40.4411   60.0359   62.2146 C   0  0  0  0  0  0  0  0  0  0  0  0
  -40.8179   60.3168   60.8598 O   0  0  0  0  0  0  0  0  0  0  0  0
  -40.5166   61.2066   60.6183 H   0  0  0  0  0  0  0  0  0  0  0  0
  -38.9354   60.0660   62.3342 C   0  0  0  0  0  0  0  0  0  0  0  0
  -38.4438   59.0207   63.2077 O   0  0  0  0  0  0  0  0  0  0  0  0
  -36.9922   58.7215   63.8237 P   0  0  0  0  0  0  0  0  0  0  0  0
  -35.9435   59.0932   62.7768 O   0  0  0  0  0  0  0  0  0  0  0  0
  -36.8855   57.2727   64.1030 O   0  0  0  0  0  0  0  0  0  0  0  0
  -37.0491   56.7734   63.2876 H   0  0  0  0  0  0  0  0  0  0  0  0
  -36.7211   59.6068   65.1831 O   0  0  0  0  0  0  0  0  0  0  0  0
  -35.8660   60.7781   65.2815 C   0  0  0  0  0  0  0  0  0  0  0  0
  -36.5691   61.9862   64.7139 C   0  0  0  0  0  0  0  0  0  0  0  0
  -35.7253   63.2328   64.5223 N   0  0  0  0  0  0  0  0  0  0  0  0
  -36.4537   64.2349   63.6855 C   0  0  0  0  0  0  0  0  0  0  0  0
  -34.4589   62.8501   63.8292 C   0  0  0  0  0  0  0  0  0  0  0  0
  -35.3975   63.8558   65.8494 C   0  0  0  0  0  0  0  0  0  0  0  0
 34 33  1  0  0  0
 34 35  1  0  0  0
 34 36  1  0  0  0
 34 37  1  0  0  0
 22 23  1  0  0  0
 22 25  1  0  0  0
 22 21  1  0  0  0
 27 26  1  0  0  0
 27 28  2  0  0  0
 27 31  1  0  0  0
 27 29  1  0  0  0
 25 26  1  0  0  0
 32 33  1  0  0  0
 32 31  1  0  0  0
 20 21  1  0  0  0
 20  2  1  0  0  0
  1  2  2  0  0  0
  2  3  1  0  0  0
  3  4  1  0  0  0
  4  5  1  0  0  0
  5  6  1  0  0  0
  6  7  1  0  0  0
  7  8  1  0  0  0
  8  9  1  0  0  0
  9 10  1  0  0  0
 10 11  2  0  0  0
 11 12  1  0  0  0
 12 13  1  0  0  0
 13 14  1  0  0  0
 14 15  1  0  0  0
 15 16  1  0  0  0
 16 17  1  0  0  0
 17 18  1  0  0  0
 18 19  1  0  0  0
 23 24  1  0  0  0
 29 30  1  0  0  0
M  CHG 1  28  -1
M  END
> <minimizedAffinity>
-7.50555

> <CNNscore>
0.4992196262

> <CNNaffinity>
6.5210862160

> <CNN_VS>
3.2554543018

> <CNNaffinity_variance>
0.5992335081

$$$$



 37 36  0  0  0  0  0  0  0  0999 V2000
  -41.9547   58.8183   60.2036 O   0  0  0  0  0  0  0  0  0  0  0  0
  -41.7807   59.8578   60.7899 C   0  0  0  0  0  0  0  0  0  0  0  0
  -42.8337   60.6192   61.5351 C   0  0  0  0  0  0  0  0  0  0  0  0
  -43.0050   60.1518   62.9755 C   0  0  0  0  0  0  0  0  0  0  0  0
  -43.7228   58.8208   63.1196 C   0  0  0  0  0  0  0  0  0  0  0  0
  -44.7716   58.8156   64.2178 C   0  0  0  0  0  0  0  0  0  0  0  0
  -45.5910   60.0940   64.2599 C   0  0  0  0  0  0  0  0  0  0  0  0
  -46.8998   59.9105   64.9954 C   0  0  0  0  0  0  0  0  0  0  0  0
  -48.0997   59.6628   64.1039 C   0  0  0  0  0  0  0  0  0  0  0  0
  -49.1067   58.7480   64.6880 C   0  0  0  0  0  0  0  0  0  0  0  0
  -50.3657   58.6410   64.3163 C   0  0  0  0  0  0  0  0  0  0  0  0
  -51.0460   59.3780   63.2088 C   0  0  0  0  0  0  0  0  0  0  0  0
  -51.2025   58.4684   61.9891 C   0  0  0  0  0  0  0  0  0  0  0  0
  -50.1342   58.6257   60.9170 C   0  0  0  0  0  0  0  0  0  0  0  0
  -49.1767   57.4477   60.7838 C   0  0  0  0  0  0  0  0  0  0  0  0
  -48.9154   57.0354   59.3389 C   0  0  0  0  0  0  0  0  0  0  0  0
  -47.9233   55.8918   59.1983 C   0  0  0  0  0  0  0  0  0  0  0  0
  -47.0733   55.9182   57.9369 C   0  0  0  0  0  0  0  0  0  0  0  0
  -47.5424   56.9358   56.9429 C   0  0  0  0  0  0  0  0  0  0  0  0
  -40.6042   60.4860   60.8726 O   0  0  0  0  0  0  0  0  0  0  0  0
  -39.5145   59.7935   61.5206 C   0  0  0  0  0  0  0  0  0  0  0  0
  -38.8732   60.6434   62.5970 C   0  0  0  0  0  0  0  0  0  0  0  0
  -39.8526   61.1178   63.5309 O   0  0  0  0  0  0  0  0  0  0  0  0
  -40.2569   60.3630   63.9868 H   0  0  0  0  0  0  0  0  0  0  0  0
  -37.7821   59.9105   63.3417 C   0  0  0  0  0  0  0  0  0  0  0  0
  -36.8425   60.8248   63.9570 O   0  0  0  0  0  0  0  0  0  0  0  0
  -36.8831   61.6525   65.3315 P   0  0  0  0  0  0  0  0  0  0  0  0
  -35.6926   61.2189   66.1853 O   0  0  0  0  0  0  0  0  0  0  0  0
  -38.1287   61.3119   66.0531 O   0  0  0  0  0  0  0  0  0  0  0  0
  -38.1658   60.3538   66.1996 H   0  0  0  0  0  0  0  0  0  0  0  0
  -36.7803   63.2718   65.0622 O   0  0  0  0  0  0  0  0  0  0  0  0
  -35.5822   64.0841   65.1956 C   0  0  0  0  0  0  0  0  0  0  0  0
  -34.7275   63.9598   63.9586 C   0  0  0  0  0  0  0  0  0  0  0  0
  -33.2376   63.7772   64.1807 N   0  0  0  0  0  0  0  0  0  0  0  0
  -32.7306   62.6084   63.3983 C   0  0  0  0  0  0  0  0  0  0  0  0
  -32.9984   63.5291   65.6339 C   0  0  0  0  0  0  0  0  0  0  0  0
  -32.4872   65.0072   63.7558 C   0  0  0  0  0  0  0  0  0  0  0  0
 34 33  1  0  0  0
 34 35  1  0  0  0
 34 36  1  0  0  0
 34 37  1  0  0  0
 22 23  1  0  0  0
 22 25  1  0  0  0
 22 21  1  0  0  0
 27 26  1  0  0  0
 27 28  2  0  0  0
 27 31  1  0  0  0
 27 29  1  0  0  0
 25 26  1  0  0  0
 32 33  1  0  0  0
 32 31  1  0  0  0
 20 21  1  0  0  0
 20  2  1  0  0  0
  1  2  2  0  0  0
  2  3  1  0  0  0
  3  4  1  0  0  0
  4  5  1  0  0  0
  5  6  1  0  0  0
  6  7  1  0  0  0
  7  8  1  0  0  0
  8  9  1  0  0  0
  9 10  1  0  0  0
 10 11  2  0  0  0
 11 12  1  0  0  0
 12 13  1  0  0  0
 13 14  1  0  0  0
 14 15  1  0  0  0
 15 16  1  0  0  0
 16 17  1  0  0  0
 17 18  1  0  0  0
 18 19  1  0  0  0
 23 24  1  0  0  0
 29 30  1  0  0  0
M  CHG 1  28  -1
M  END
> <minimizedAffinity>
-7.87299

> <CNNscore>
0.4541216791

> <CNNaffinity>
6.1588349342

> <CNN_VS>
2.7968604565

> <CNNaffinity_variance>
0.2060405761

$$$$



 37 36  0  0  0  0  0  0  0  0999 V2000
  -44.2164   60.0798   63.1946 O   0  0  0  0  0  0  0  0  0  0  0  0
  -43.5234   59.2988   63.7981 C   0  0  0  0  0  0  0  0  0  0  0  0
  -44.0139   58.3015   64.8024 C   0  0  0  0  0  0  0  0  0  0  0  0
  -45.5134   58.3958   65.0579 C   0  0  0  0  0  0  0  0  0  0  0  0
  -45.9040   59.4094   66.1198 C   0  0  0  0  0  0  0  0  0  0  0  0
  -47.3576   59.8411   66.0375 C   0  0  0  0  0  0  0  0  0  0  0  0
  -47.5811   60.9854   65.0638 C   0  0  0  0  0  0  0  0  0  0  0  0
  -48.9848   60.9913   64.5005 C   0  0  0  0  0  0  0  0  0  0  0  0
  -49.7670   59.7143   64.7317 C   0  0  0  0  0  0  0  0  0  0  0  0
  -51.0883   59.6870   64.0642 C   0  0  0  0  0  0  0  0  0  0  0  0
  -51.3003   59.6474   62.7649 C   0  0  0  0  0  0  0  0  0  0  0  0
  -50.2712   59.5803   61.6836 C   0  0  0  0  0  0  0  0  0  0  0  0
  -49.6573   58.1805   61.6271 C   0  0  0  0  0  0  0  0  0  0  0  0
  -49.3554   57.6569   60.2306 C   0  0  0  0  0  0  0  0  0  0  0  0
  -48.5019   56.3952   60.1862 C   0  0  0  0  0  0  0  0  0  0  0  0
  -48.4303   55.7565   58.8030 C   0  0  0  0  0  0  0  0  0  0  0  0
  -47.0246   55.7012   58.2262 C   0  0  0  0  0  0  0  0  0  0  0  0
  -46.7390   56.6943   57.1097 C   0  0  0  0  0  0  0  0  0  0  0  0
  -47.9742   57.1033   56.3677 C   0  0  0  0  0  0  0  0  0  0  0  0
  -42.1994   59.1980   63.6488 O   0  0  0  0  0  0  0  0  0  0  0  0
  -41.5124   60.2783   62.9795 C   0  0  0  0  0  0  0  0  0  0  0  0
  -41.3520   60.0068   61.4987 C   0  0  0  0  0  0  0  0  0  0  0  0
  -42.2407   60.8245   60.7255 O   0  0  0  0  0  0  0  0  0  0  0  0
  -42.0155   61.7590   60.8554 H   0  0  0  0  0  0  0  0  0  0  0  0
  -39.9339   60.2147   61.0210 C   0  0  0  0  0  0  0  0  0  0  0  0
  -39.0681   59.1221   61.4132 O   0  0  0  0  0  0  0  0  0  0  0  0
  -37.8847   59.0152   62.4921 P   0  0  0  0  0  0  0  0  0  0  0  0
  -36.7199   58.2634   61.8503 O   0  0  0  0  0  0  0  0  0  0  0  0
  -38.3688   58.2326   63.6504 O   0  0  0  0  0  0  0  0  0  0  0  0
  -38.6711   57.3617   63.3486 H   0  0  0  0  0  0  0  0  0  0  0  0
  -37.3616   60.5024   62.9611 O   0  0  0  0  0  0  0  0  0  0  0  0
  -37.2592   60.9775   64.3310 C   0  0  0  0  0  0  0  0  0  0  0  0
  -35.8103   61.1232   64.7254 C   0  0  0  0  0  0  0  0  0  0  0  0
  -35.2755   62.5396   64.8274 N   0  0  0  0  0  0  0  0  0  0  0  0
  -34.2544   62.6370   65.9150 C   0  0  0  0  0  0  0  0  0  0  0  0
  -36.4108   63.4569   65.1438 C   0  0  0  0  0  0  0  0  0  0  0  0
  -34.6439   62.9587   63.5305 C   0  0  0  0  0  0  0  0  0  0  0  0
 34 33  1  0  0  0
 34 35  1  0  0  0
 34 36  1  0  0  0
 34 37  1  0  0  0
 22 23  1  0  0  0
 22 25  1  0  0  0
 22 21  1  0  0  0
 27 26  1  0  0  0
 27 28  2  0  0  0
 27 31  1  0  0  0
 27 29  1  0  0  0
 25 26  1  0  0  0
 32 33  1  0  0  0
 32 31  1  0  0  0
 20 21  1  0  0  0
 20  2  1  0  0  0
  1  2  2  0  0  0
  2  3  1  0  0  0
  3  4  1  0  0  0
  4  5  1  0  0  0
  5  6  1  0  0  0
  6  7  1  0  0  0
  7  8  1  0  0  0
  8  9  1  0  0  0
  9 10  1  0  0  0
 10 11  2  0  0  0
 11 12  1  0  0  0
 12 13  1  0  0  0
 13 14  1  0  0  0
 14 15  1  0  0  0
 15 16  1  0  0  0
 16 17  1  0  0  0
 17 18  1  0  0  0
 18 19  1  0  0  0
 23 24  1  0  0  0
 29 30  1  0  0  0
M  CHG 1  28  -1
M  END
> <minimizedAffinity>
-6.81784

> <CNNscore>
0.3635918200

> <CNNaffinity>
6.1566758156

> <CNN_VS>
2.2385170460

> <CNNaffinity_variance>
0.4254375100

$$$$



 37 36  0  0  0  0  0  0  0  0999 V2000
  -44.9760   59.2727   63.5228 O   0  0  0  0  0  0  0  0  0  0  0  0
  -43.9191   59.4586   64.0733 C   0  0  0  0  0  0  0  0  0  0  0  0
  -43.2251   58.4799   64.9701 C   0  0  0  0  0  0  0  0  0  0  0  0
  -44.0937   57.2825   65.3368 C   0  0  0  0  0  0  0  0  0  0  0  0
  -44.5287   57.2481   66.7918 C   0  0  0  0  0  0  0  0  0  0  0  0
  -46.0318   57.3608   66.9760 C   0  0  0  0  0  0  0  0  0  0  0  0
  -46.4920   58.7860   67.2300 C   0  0  0  0  0  0  0  0  0  0  0  0
  -47.2755   59.3502   66.0658 C   0  0  0  0  0  0  0  0  0  0  0  0
  -48.0000   58.3165   65.2276 C   0  0  0  0  0  0  0  0  0  0  0  0
  -49.3810   58.0332   65.6802 C   0  0  0  0  0  0  0  0  0  0  0  0
  -50.4202   58.8312   65.5461 C   0  0  0  0  0  0  0  0  0  0  0  0
  -50.4522   60.1681   64.8795 C   0  0  0  0  0  0  0  0  0  0  0  0
  -51.4157   60.1414   63.6919 C   0  0  0  0  0  0  0  0  0  0  0  0
  -51.1611   59.0429   62.6702 C   0  0  0  0  0  0  0  0  0  0  0  0
  -50.3009   59.4551   61.4818 C   0  0  0  0  0  0  0  0  0  0  0  0
  -49.4009   58.3377   60.9644 C   0  0  0  0  0  0  0  0  0  0  0  0
  -50.0964   56.9896   60.8611 C   0  0  0  0  0  0  0  0  0  0  0  0
  -49.3268   55.9156   60.1070 C   0  0  0  0  0  0  0  0  0  0  0  0
  -48.0824   56.4408   59.4596 C   0  0  0  0  0  0  0  0  0  0  0  0
  -43.1956   60.5756   63.9529 O   0  0  0  0  0  0  0  0  0  0  0  0
  -42.1170   60.5798   62.9920 C   0  0  0  0  0  0  0  0  0  0  0  0
  -40.7674   60.7047   63.6667 C   0  0  0  0  0  0  0  0  0  0  0  0
  -40.9124   61.0703   65.0457 O   0  0  0  0  0  0  0  0  0  0  0  0
  -41.3874   60.3686   65.5180 H   0  0  0  0  0  0  0  0  0  0  0  0
  -39.9489   59.4389   63.5656 C   0  0  0  0  0  0  0  0  0  0  0  0
  -39.3688   59.2767   62.2486 O   0  0  0  0  0  0  0  0  0  0  0  0
  -38.5430   58.0783   61.5720 P   0  0  0  0  0  0  0  0  0  0  0  0
  -37.9221   58.5981   60.2766 O   0  0  0  0  0  0  0  0  0  0  0  0
  -39.4821   56.9851   61.2382 O   0  0  0  0  0  0  0  0  0  0  0  0
  -40.1802   57.3249   60.6567 H   0  0  0  0  0  0  0  0  0  0  0  0
  -37.3408   57.5435   62.5588 O   0  0  0  0  0  0  0  0  0  0  0  0
  -35.9979   58.0937   62.6423 C   0  0  0  0  0  0  0  0  0  0  0  0
  -35.9652   59.2435   63.6185 C   0  0  0  0  0  0  0  0  0  0  0  0
  -34.6346   59.5215   64.2929 N   0  0  0  0  0  0  0  0  0  0  0  0
  -33.5892   59.8465   63.2747 C   0  0  0  0  0  0  0  0  0  0  0  0
  -34.2166   58.3010   65.0453 C   0  0  0  0  0  0  0  0  0  0  0  0
  -34.7584   60.6757   65.2462 C   0  0  0  0  0  0  0  0  0  0  0  0
 34 33  1  0  0  0
 34 35  1  0  0  0
 34 36  1  0  0  0
 34 37  1  0  0  0
 22 23  1  0  0  0
 22 25  1  0  0  0
 22 21  1  0  0  0
 27 26  1  0  0  0
 27 28  2  0  0  0
 27 31  1  0  0  0
 27 29  1  0  0  0
 25 26  1  0  0  0
 32 33  1  0  0  0
 32 31  1  0  0  0
 20 21  1  0  0  0
 20  2  1  0  0  0
  1  2  2  0  0  0
  2  3  1  0  0  0
  3  4  1  0  0  0
  4  5  1  0  0  0
  5  6  1  0  0  0
  6  7  1  0  0  0
  7  8  1  0  0  0
  8  9  1  0  0  0
  9 10  1  0  0  0
 10 11  2  0  0  0
 11 12  1  0  0  0
 12 13  1  0  0  0
 13 14  1  0  0  0
 14 15  1  0  0  0
 15 16  1  0  0  0
 16 17  1  0  0  0
 17 18  1  0  0  0
 18 19  1  0  0  0
 23 24  1  0  0  0
 29 30  1  0  0  0
M  CHG 1  28  -1
M  END
> <minimizedAffinity>
-7.00605

> <CNNscore>
0.2745182514

> <CNNaffinity>
6.3911147118

> <CNN_VS>
1.7544776201

> <CNNaffinity_variance>
0.1195827499

$$$$
