


 25 25  0  0  0  0  0  0  0  0999 V2000
  -49.5984   56.7220   59.7495 C   0  0  0  0  0  0  0  0  0  0  0  0
  -49.5738   57.6044   58.4926 C   0  0  0  0  0  0  0  0  0  0  0  0
  -48.8247   56.9042   57.3672 C   0  0  0  0  0  0  0  0  0  0  0  0
  -47.9934   57.9297   56.5957 C   0  0  0  0  0  0  0  0  0  0  0  0
  -47.0571   58.6728   57.5484 C   0  0  0  0  0  0  0  0  0  0  0  0
  -45.5515   57.3797   59.3197 C   0  0  0  0  0  0  0  0  0  0  0  0
  -45.8777   57.7496   57.8595 C   0  0  0  0  0  0  0  0  0  0  0  0
  -46.2993   58.0056   60.5071 C   0  0  0  0  0  0  0  0  0  0  0  0
  -45.3118   58.9373   61.2248 C   0  0  0  0  0  0  0  0  0  0  0  0
  -45.7732   60.2410   61.9193 C   0  0  0  0  0  0  0  0  0  0  0  0
  -47.2562   60.6589   61.9601 C   0  0  0  0  0  0  0  0  0  0  0  0
  -48.9166   60.7437   60.0459 C   0  0  0  0  0  0  0  0  0  0  0  0
  -47.5954   61.2829   60.5996 C   0  0  0  0  0  0  0  0  0  0  0  0
  -50.4182   57.3353   60.9142 C   0  0  0  0  0  0  0  0  0  0  0  0
  -49.5568   57.6681   62.1554 C   0  0  0  0  0  0  0  0  0  0  0  0
  -51.7769   60.3588   63.4150 C   0  0  0  0  0  0  0  0  0  0  0  0
  -51.3979   60.4482   64.7610 C   0  0  0  0  0  0  0  0  0  0  0  0
  -51.1557   59.4360   62.5649 C   0  0  0  0  0  0  0  0  0  0  0  0
  -50.3966   59.6001   65.2336 C   0  0  0  0  0  0  0  0  0  0  0  0
  -49.7878   58.6782   64.3837 C   0  0  0  0  0  0  0  0  0  0  0  0
  -50.1746   58.5600   63.0426 C   0  0  0  0  0  0  0  0  0  0  0  0
  -49.9713   59.6256   66.5205 O   0  0  0  0  0  0  0  0  0  0  0  0
  -48.8183   57.8637   64.8921 O   0  0  0  0  0  0  0  0  0  0  0  0
  -50.3519   60.2291   67.1279 H   0  0  0  0  0  0  0  0  0  0  0  0
  -48.5614   57.9448   65.7895 H   0  0  0  0  0  0  0  0  0  0  0  0
 12 13  1  0  0  0
  9 10  2  0  0  0
  9  8  1  0  0  0
  6  7  2  0  0  0
  6  8  1  0  0  0
 10 11  1  0  0  0
  7  5  1  0  0  0
 16 17  2  0  0  0
 16 18  1  0  0  0
 17 19  1  0  0  0
 18 21  2  0  0  0
 13 11  1  0  0  0
  5  4  1  0  0  0
  4  3  1  0  0  0
  3  2  1  0  0  0
  2  1  1  0  0  0
  1 14  1  0  0  0
 14 15  1  0  0  0
 15 21  1  0  0  0
 19 20  2  0  0  0
 19 22  1  0  0  0
 20 21  1  0  0  0
 20 23  1  0  0  0
 22 24  1  0  0  0
 23 25  1  0  0  0
M  END
> <minimizedAffinity>
-8.99664

$$$$



 25 25  0  0  0  0  0  0  0  0999 V2000
  -49.7005   57.1193   59.4025 C   0  0  0  0  0  0  0  0  0  0  0  0
  -48.8590   55.8676   59.6924 C   0  0  0  0  0  0  0  0  0  0  0  0
  -47.6300   55.8347   58.7943 C   0  0  0  0  0  0  0  0  0  0  0  0
  -46.5920   56.8280   59.3176 C   0  0  0  0  0  0  0  0  0  0  0  0
  -45.8010   57.4252   58.1540 C   0  0  0  0  0  0  0  0  0  0  0  0
  -47.1948   59.6671   57.8261 C   0  0  0  0  0  0  0  0  0  0  0  0
  -46.7628   58.2760   57.3226 C   0  0  0  0  0  0  0  0  0  0  0  0
  -46.7888   60.1969   59.2100 C   0  0  0  0  0  0  0  0  0  0  0  0
  -48.0714   60.6723   59.9080 C   0  0  0  0  0  0  0  0  0  0  0  0
  -48.1000   61.0307   61.4131 C   0  0  0  0  0  0  0  0  0  0  0  0
  -46.8330   60.9645   62.2883 C   0  0  0  0  0  0  0  0  0  0  0  0
  -44.8223   62.4053   61.7318 C   0  0  0  0  0  0  0  0  0  0  0  0
  -46.2302   62.3753   62.3316 C   0  0  0  0  0  0  0  0  0  0  0  0
  -50.5203   57.6048   60.6261 C   0  0  0  0  0  0  0  0  0  0  0  0
  -49.6859   57.6794   61.9267 C   0  0  0  0  0  0  0  0  0  0  0  0
  -51.7561   60.3605   63.4369 C   0  0  0  0  0  0  0  0  0  0  0  0
  -51.2883   60.3861   64.7574 C   0  0  0  0  0  0  0  0  0  0  0  0
  -51.2132   59.4613   62.5114 C   0  0  0  0  0  0  0  0  0  0  0  0
  -50.2784   59.4987   65.1285 C   0  0  0  0  0  0  0  0  0  0  0  0
  -49.7477   58.6006   64.2040 C   0  0  0  0  0  0  0  0  0  0  0  0
  -50.2237   58.5461   62.8877 C   0  0  0  0  0  0  0  0  0  0  0  0
  -49.7697   59.4620   66.3846 O   0  0  0  0  0  0  0  0  0  0  0  0
  -48.7665   57.7459   64.6143 O   0  0  0  0  0  0  0  0  0  0  0  0
  -50.0959   60.0474   67.0394 H   0  0  0  0  0  0  0  0  0  0  0  0
  -48.4499   57.7844   65.4953 H   0  0  0  0  0  0  0  0  0  0  0  0
 12 13  1  0  0  0
  9 10  2  0  0  0
  9  8  1  0  0  0
  6  7  2  0  0  0
  6  8  1  0  0  0
 10 11  1  0  0  0
  7  5  1  0  0  0
 16 17  2  0  0  0
 16 18  1  0  0  0
 17 19  1  0  0  0
 18 21  2  0  0  0
 13 11  1  0  0  0
  5  4  1  0  0  0
  4  3  1  0  0  0
  3  2  1  0  0  0
  2  1  1  0  0  0
  1 14  1  0  0  0
 14 15  1  0  0  0
 15 21  1  0  0  0
 19 20  2  0  0  0
 19 22  1  0  0  0
 20 21  1  0  0  0
 20 23  1  0  0  0
 22 24  1  0  0  0
 23 25  1  0  0  0
M  END
> <minimizedAffinity>
-8.53974

$$$$



 25 25  0  0  0  0  0  0  0  0999 V2000
  -47.5052   56.6519   56.8523 C   0  0  0  0  0  0  0  0  0  0  0  0
  -47.7079   55.6227   57.9743 C   0  0  0  0  0  0  0  0  0  0  0  0
  -48.8115   56.0780   58.9191 C   0  0  0  0  0  0  0  0  0  0  0  0
  -49.5740   57.2421   58.2856 C   0  0  0  0  0  0  0  0  0  0  0  0
  -50.1233   58.1658   59.3726 C   0  0  0  0  0  0  0  0  0  0  0  0
  -50.3015   58.1699   62.0268 C   0  0  0  0  0  0  0  0  0  0  0  0
  -50.0394   57.4204   60.7058 C   0  0  0  0  0  0  0  0  0  0  0  0
  -50.5295   59.6886   62.0724 C   0  0  0  0  0  0  0  0  0  0  0  0
  -51.5215   59.9644   63.2118 C   0  0  0  0  0  0  0  0  0  0  0  0
  -51.0495   60.2429   64.6590 C   0  0  0  0  0  0  0  0  0  0  0  0
  -49.5546   60.2945   65.0304 C   0  0  0  0  0  0  0  0  0  0  0  0
  -50.2325   58.1117   66.1279 C   0  0  0  0  0  0  0  0  0  0  0  0
  -49.1219   58.8676   65.3943 C   0  0  0  0  0  0  0  0  0  0  0  0
  -46.2700   57.5635   57.0713 C   0  0  0  0  0  0  0  0  0  0  0  0
  -46.6385   58.9720   57.5947 C   0  0  0  0  0  0  0  0  0  0  0  0
  -45.7935   58.1527   61.1118 C   0  0  0  0  0  0  0  0  0  0  0  0
  -46.2604   59.2815   61.7981 C   0  0  0  0  0  0  0  0  0  0  0  0
  -45.9291   58.0639   59.7212 C   0  0  0  0  0  0  0  0  0  0  0  0
  -46.8565   60.3106   61.0694 C   0  0  0  0  0  0  0  0  0  0  0  0
  -46.9813   60.2192   59.6841 C   0  0  0  0  0  0  0  0  0  0  0  0
  -46.4958   59.1085   58.9822 C   0  0  0  0  0  0  0  0  0  0  0  0
  -47.3359   61.4337   61.6581 O   0  0  0  0  0  0  0  0  0  0  0  0
  -47.5643   61.2538   59.0122 O   0  0  0  0  0  0  0  0  0  0  0  0
  -47.2737   61.5387   62.5871 H   0  0  0  0  0  0  0  0  0  0  0  0
  -47.8883   61.9956   59.4841 H   0  0  0  0  0  0  0  0  0  0  0  0
 12 13  1  0  0  0
  9 10  2  0  0  0
  9  8  1  0  0  0
  6  7  2  0  0  0
  6  8  1  0  0  0
 10 11  1  0  0  0
  7  5  1  0  0  0
 16 17  2  0  0  0
 16 18  1  0  0  0
 17 19  1  0  0  0
 18 21  2  0  0  0
 13 11  1  0  0  0
  5  4  1  0  0  0
  4  3  1  0  0  0
  3  2  1  0  0  0
  2  1  1  0  0  0
  1 14  1  0  0  0
 14 15  1  0  0  0
 15 21  1  0  0  0
 19 20  2  0  0  0
 19 22  1  0  0  0
 20 21  1  0  0  0
 20 23  1  0  0  0
 22 24  1  0  0  0
 23 25  1  0  0  0
M  END
> <minimizedAffinity>
-8.40466

$$$$



 25 25  0  0  0  0  0  0  0  0999 V2000
  -51.3236   60.0163   63.4819 C   0  0  0  0  0  0  0  0  0  0  0  0
  -50.2907   59.5869   62.4295 C   0  0  0  0  0  0  0  0  0  0  0  0
  -50.6815   58.2487   61.8174 C   0  0  0  0  0  0  0  0  0  0  0  0
  -49.4202   57.4314   61.5361 C   0  0  0  0  0  0  0  0  0  0  0  0
  -49.5667   56.6742   60.2163 C   0  0  0  0  0  0  0  0  0  0  0  0
  -49.4154   57.5894   57.7232 C   0  0  0  0  0  0  0  0  0  0  0  0
  -49.9996   57.6784   59.1467 C   0  0  0  0  0  0  0  0  0  0  0  0
  -48.3058   56.5917   57.3569 C   0  0  0  0  0  0  0  0  0  0  0  0
  -47.0968   57.4116   56.8833 C   0  0  0  0  0  0  0  0  0  0  0  0
  -45.9781   57.8572   57.8552 C   0  0  0  0  0  0  0  0  0  0  0  0
  -45.9972   57.4719   59.3474 C   0  0  0  0  0  0  0  0  0  0  0  0
  -46.9115   59.8353   59.4300 C   0  0  0  0  0  0  0  0  0  0  0  0
  -46.0834   58.7729   60.1570 C   0  0  0  0  0  0  0  0  0  0  0  0
  -50.6866   60.4334   64.8328 C   0  0  0  0  0  0  0  0  0  0  0  0
  -50.6487   59.2844   65.8681 C   0  0  0  0  0  0  0  0  0  0  0  0
  -47.9543   56.7534   65.5683 C   0  0  0  0  0  0  0  0  0  0  0  0
  -46.9013   57.3594   66.2663 C   0  0  0  0  0  0  0  0  0  0  0  0
  -49.1893   57.4019   65.4484 C   0  0  0  0  0  0  0  0  0  0  0  0
  -47.1078   58.6172   66.8325 C   0  0  0  0  0  0  0  0  0  0  0  0
  -48.3374   59.2607   66.7025 C   0  0  0  0  0  0  0  0  0  0  0  0
  -49.3905   58.6783   65.9856 C   0  0  0  0  0  0  0  0  0  0  0  0
  -46.1418   59.2691   67.5248 O   0  0  0  0  0  0  0  0  0  0  0  0
  -48.4911   60.4936   67.2664 O   0  0  0  0  0  0  0  0  0  0  0  0
  -45.2992   58.8750   67.6377 H   0  0  0  0  0  0  0  0  0  0  0  0
  -47.7851   60.8810   67.7454 H   0  0  0  0  0  0  0  0  0  0  0  0
 12 13  1  0  0  0
  9 10  2  0  0  0
  9  8  1  0  0  0
  6  7  2  0  0  0
  6  8  1  0  0  0
 10 11  1  0  0  0
  7  5  1  0  0  0
 16 17  2  0  0  0
 16 18  1  0  0  0
 17 19  1  0  0  0
 18 21  2  0  0  0
 13 11  1  0  0  0
  5  4  1  0  0  0
  4  3  1  0  0  0
  3  2  1  0  0  0
  2  1  1  0  0  0
  1 14  1  0  0  0
 14 15  1  0  0  0
 15 21  1  0  0  0
 19 20  2  0  0  0
 19 22  1  0  0  0
 20 21  1  0  0  0
 20 23  1  0  0  0
 22 24  1  0  0  0
 23 25  1  0  0  0
M  END
> <minimizedAffinity>
-8.35485

$$$$



 25 25  0  0  0  0  0  0  0  0999 V2000
  -49.8828   57.9741   58.8117 C   0  0  0  0  0  0  0  0  0  0  0  0
  -49.9575   57.0124   60.0070 C   0  0  0  0  0  0  0  0  0  0  0  0
  -50.4654   57.7412   61.2436 C   0  0  0  0  0  0  0  0  0  0  0  0
  -49.2776   58.3035   62.0251 C   0  0  0  0  0  0  0  0  0  0  0  0
  -49.5026   59.7839   62.3325 C   0  0  0  0  0  0  0  0  0  0  0  0
  -51.5102   60.2236   64.0214 C   0  0  0  0  0  0  0  0  0  0  0  0
  -50.9972   59.9866   62.5875 C   0  0  0  0  0  0  0  0  0  0  0  0
  -50.5829   60.1439   65.2439 C   0  0  0  0  0  0  0  0  0  0  0  0
  -50.3977   58.6562   65.5767 C   0  0  0  0  0  0  0  0  0  0  0  0
  -49.0658   58.1019   66.1367 C   0  0  0  0  0  0  0  0  0  0  0  0
  -47.8615   59.0193   66.4256 C   0  0  0  0  0  0  0  0  0  0  0  0
  -46.7354   60.5452   64.7427 C   0  0  0  0  0  0  0  0  0  0  0  0
  -47.0237   59.0959   65.1419 C   0  0  0  0  0  0  0  0  0  0  0  0
  -48.6782   57.6969   57.8752 C   0  0  0  0  0  0  0  0  0  0  0  0
  -47.6828   58.8787   57.7983 C   0  0  0  0  0  0  0  0  0  0  0  0
  -45.5639   58.1242   60.7472 C   0  0  0  0  0  0  0  0  0  0  0  0
  -45.5185   59.3619   61.4024 C   0  0  0  0  0  0  0  0  0  0  0  0
  -46.2872   57.9797   59.5573 C   0  0  0  0  0  0  0  0  0  0  0  0
  -46.2027   60.4417   60.8445 C   0  0  0  0  0  0  0  0  0  0  0  0
  -46.9145   60.2929   59.6553 C   0  0  0  0  0  0  0  0  0  0  0  0
  -46.9472   59.0683   58.9760 C   0  0  0  0  0  0  0  0  0  0  0  0
  -46.2105   61.6703   61.4172 O   0  0  0  0  0  0  0  0  0  0  0  0
  -47.5621   61.3789   59.1427 O   0  0  0  0  0  0  0  0  0  0  0  0
  -45.7457   61.8172   62.2174 H   0  0  0  0  0  0  0  0  0  0  0  0
  -47.5387   62.1969   59.5990 H   0  0  0  0  0  0  0  0  0  0  0  0
 12 13  1  0  0  0
  9 10  2  0  0  0
  9  8  1  0  0  0
  6  7  2  0  0  0
  6  8  1  0  0  0
 10 11  1  0  0  0
  7  5  1  0  0  0
 16 17  2  0  0  0
 16 18  1  0  0  0
 17 19  1  0  0  0
 18 21  2  0  0  0
 13 11  1  0  0  0
  5  4  1  0  0  0
  4  3  1  0  0  0
  3  2  1  0  0  0
  2  1  1  0  0  0
  1 14  1  0  0  0
 14 15  1  0  0  0
 15 21  1  0  0  0
 19 20  2  0  0  0
 19 22  1  0  0  0
 20 21  1  0  0  0
 20 23  1  0  0  0
 22 24  1  0  0  0
 23 25  1  0  0  0
M  END
> <minimizedAffinity>
-8.33556

$$$$



 25 25  0  0  0  0  0  0  0  0999 V2000
  -47.9232   55.7833   58.1331 C   0  0  0  0  0  0  0  0  0  0  0  0
  -48.7341   55.9295   59.4293 C   0  0  0  0  0  0  0  0  0  0  0  0
  -49.6418   57.1494   59.3527 C   0  0  0  0  0  0  0  0  0  0  0  0
  -50.6935   57.0699   60.4597 C   0  0  0  0  0  0  0  0  0  0  0  0
  -50.1290   57.6326   61.7640 C   0  0  0  0  0  0  0  0  0  0  0  0
  -50.4428   60.2210   62.2910 C   0  0  0  0  0  0  0  0  0  0  0  0
  -49.7395   59.0907   61.5144 C   0  0  0  0  0  0  0  0  0  0  0  0
  -51.6243   59.9505   63.2353 C   0  0  0  0  0  0  0  0  0  0  0  0
  -51.2544   60.5387   64.6048 C   0  0  0  0  0  0  0  0  0  0  0  0
  -50.5690   59.6900   65.7024 C   0  0  0  0  0  0  0  0  0  0  0  0
  -50.1866   58.2153   65.4689 C   0  0  0  0  0  0  0  0  0  0  0  0
  -47.9915   56.9604   65.6557 C   0  0  0  0  0  0  0  0  0  0  0  0
  -48.7046   58.1821   65.0712 C   0  0  0  0  0  0  0  0  0  0  0  0
  -47.9312   57.0625   57.2564 C   0  0  0  0  0  0  0  0  0  0  0  0
  -46.6425   57.9064   57.3997 C   0  0  0  0  0  0  0  0  0  0  0  0
  -47.4108   60.9737   59.3379 C   0  0  0  0  0  0  0  0  0  0  0  0
  -46.7347   60.7387   60.5425 C   0  0  0  0  0  0  0  0  0  0  0  0
  -47.3678   60.0282   58.3064 C   0  0  0  0  0  0  0  0  0  0  0  0
  -46.0251   59.5474   60.6920 C   0  0  0  0  0  0  0  0  0  0  0  0
  -45.9929   58.6067   59.6638 C   0  0  0  0  0  0  0  0  0  0  0  0
  -46.6853   58.8167   58.4644 C   0  0  0  0  0  0  0  0  0  0  0  0
  -45.3431   59.2458   61.8241 O   0  0  0  0  0  0  0  0  0  0  0  0
  -45.2921   57.4521   59.8580 O   0  0  0  0  0  0  0  0  0  0  0  0
  -45.3365   59.8483   62.5417 H   0  0  0  0  0  0  0  0  0  0  0  0
  -44.8298   57.3141   60.6612 H   0  0  0  0  0  0  0  0  0  0  0  0
 12 13  1  0  0  0
  9 10  2  0  0  0
  9  8  1  0  0  0
  6  7  2  0  0  0
  6  8  1  0  0  0
 10 11  1  0  0  0
  7  5  1  0  0  0
 16 17  2  0  0  0
 16 18  1  0  0  0
 17 19  1  0  0  0
 18 21  2  0  0  0
 13 11  1  0  0  0
  5  4  1  0  0  0
  4  3  1  0  0  0
  3  2  1  0  0  0
  2  1  1  0  0  0
  1 14  1  0  0  0
 14 15  1  0  0  0
 15 21  1  0  0  0
 19 20  2  0  0  0
 19 22  1  0  0  0
 20 21  1  0  0  0
 20 23  1  0  0  0
 22 24  1  0  0  0
 23 25  1  0  0  0
M  END
> <minimizedAffinity>
-8.26118

$$$$



 25 25  0  0  0  0  0  0  0  0999 V2000
  -50.3954   57.8257   61.1240 C   0  0  0  0  0  0  0  0  0  0  0  0
  -50.4056   58.2146   59.6382 C   0  0  0  0  0  0  0  0  0  0  0  0
  -49.6471   57.1831   58.8144 C   0  0  0  0  0  0  0  0  0  0  0  0
  -49.0446   56.1318   59.7471 C   0  0  0  0  0  0  0  0  0  0  0  0
  -47.6676   55.7045   59.2396 C   0  0  0  0  0  0  0  0  0  0  0  0
  -46.9370   56.1699   56.7245 C   0  0  0  0  0  0  0  0  0  0  0  0
  -47.7942   55.3976   57.7463 C   0  0  0  0  0  0  0  0  0  0  0  0
  -46.0312   57.3403   57.1373 C   0  0  0  0  0  0  0  0  0  0  0  0
  -46.8472   58.6293   56.9616 C   0  0  0  0  0  0  0  0  0  0  0  0
  -47.1295   59.5873   58.1437 C   0  0  0  0  0  0  0  0  0  0  0  0
  -46.5764   59.3188   59.5571 C   0  0  0  0  0  0  0  0  0  0  0  0
  -48.1820   61.2350   59.9799 C   0  0  0  0  0  0  0  0  0  0  0  0
  -46.8797   60.5567   60.4121 C   0  0  0  0  0  0  0  0  0  0  0  0
  -50.7790   58.9952   62.0674 C   0  0  0  0  0  0  0  0  0  0  0  0
  -49.5714   59.5722   62.8434 C   0  0  0  0  0  0  0  0  0  0  0  0
  -49.7811   57.8471   66.1199 C   0  0  0  0  0  0  0  0  0  0  0  0
  -48.4863   57.3318   66.2654 C   0  0  0  0  0  0  0  0  0  0  0  0
  -50.1235   58.5893   64.9833 C   0  0  0  0  0  0  0  0  0  0  0  0
  -47.5524   57.5698   65.2573 C   0  0  0  0  0  0  0  0  0  0  0  0
  -47.9022   58.3028   64.1245 C   0  0  0  0  0  0  0  0  0  0  0  0
  -49.1999   58.8019   63.9536 C   0  0  0  0  0  0  0  0  0  0  0  0
  -46.2794   57.1084   65.3233 O   0  0  0  0  0  0  0  0  0  0  0  0
  -46.9578   58.5039   63.1605 O   0  0  0  0  0  0  0  0  0  0  0  0
  -45.9994   56.6107   66.0661 H   0  0  0  0  0  0  0  0  0  0  0  0
  -46.0905   58.1691   63.2772 H   0  0  0  0  0  0  0  0  0  0  0  0
 12 13  1  0  0  0
  9 10  2  0  0  0
  9  8  1  0  0  0
  6  7  2  0  0  0
  6  8  1  0  0  0
 10 11  1  0  0  0
  7  5  1  0  0  0
 16 17  2  0  0  0
 16 18  1  0  0  0
 17 19  1  0  0  0
 18 21  2  0  0  0
 13 11  1  0  0  0
  5  4  1  0  0  0
  4  3  1  0  0  0
  3  2  1  0  0  0
  2  1  1  0  0  0
  1 14  1  0  0  0
 14 15  1  0  0  0
 15 21  1  0  0  0
 19 20  2  0  0  0
 19 22  1  0  0  0
 20 21  1  0  0  0
 20 23  1  0  0  0
 22 24  1  0  0  0
 23 25  1  0  0  0
M  END
> <minimizedAffinity>
-8.23202

$$$$



 25 25  0  0  0  0  0  0  0  0999 V2000
  -49.7877   60.4533   61.5157 C   0  0  0  0  0  0  0  0  0  0  0  0
  -50.6772   59.3953   62.1854 C   0  0  0  0  0  0  0  0  0  0  0  0
  -51.7257   60.0630   63.0646 C   0  0  0  0  0  0  0  0  0  0  0  0
  -51.1876   60.1884   64.4903 C   0  0  0  0  0  0  0  0  0  0  0  0
  -50.2184   59.0450   64.7900 C   0  0  0  0  0  0  0  0  0  0  0  0
  -48.4008   60.1471   66.3894 C   0  0  0  0  0  0  0  0  0  0  0  0
  -49.6516   59.2682   66.1932 C   0  0  0  0  0  0  0  0  0  0  0  0
  -47.6125   60.7220   65.2024 C   0  0  0  0  0  0  0  0  0  0  0  0
  -46.2545   60.0057   65.1703 C   0  0  0  0  0  0  0  0  0  0  0  0
  -45.8803   59.0099   64.0464 C   0  0  0  0  0  0  0  0  0  0  0  0
  -46.8370   58.7085   62.8761 C   0  0  0  0  0  0  0  0  0  0  0  0
  -45.2687   58.1422   60.9662 C   0  0  0  0  0  0  0  0  0  0  0  0
  -46.1654   59.2133   61.5917 C   0  0  0  0  0  0  0  0  0  0  0  0
  -49.4187   60.1064   60.0500 C   0  0  0  0  0  0  0  0  0  0  0  0
  -49.5252   58.5951   59.7371 C   0  0  0  0  0  0  0  0  0  0  0  0
  -46.6251   58.5630   57.4255 C   0  0  0  0  0  0  0  0  0  0  0  0
  -46.3763   57.1914   57.2832 C   0  0  0  0  0  0  0  0  0  0  0  0
  -47.6729   59.0113   58.2385 C   0  0  0  0  0  0  0  0  0  0  0  0
  -47.1884   56.2878   57.9681 C   0  0  0  0  0  0  0  0  0  0  0  0
  -48.2251   56.7412   58.7822 C   0  0  0  0  0  0  0  0  0  0  0  0
  -48.4689   58.1098   58.9542 C   0  0  0  0  0  0  0  0  0  0  0  0
  -47.0153   54.9461   57.8816 O   0  0  0  0  0  0  0  0  0  0  0  0
  -48.9887   55.8208   59.4391 O   0  0  0  0  0  0  0  0  0  0  0  0
  -46.3309   54.5956   57.3462 H   0  0  0  0  0  0  0  0  0  0  0  0
  -48.8236   54.9059   59.3222 H   0  0  0  0  0  0  0  0  0  0  0  0
 12 13  1  0  0  0
  9 10  2  0  0  0
  9  8  1  0  0  0
  6  7  2  0  0  0
  6  8  1  0  0  0
 10 11  1  0  0  0
  7  5  1  0  0  0
 16 17  2  0  0  0
 16 18  1  0  0  0
 17 19  1  0  0  0
 18 21  2  0  0  0
 13 11  1  0  0  0
  5  4  1  0  0  0
  4  3  1  0  0  0
  3  2  1  0  0  0
  2  1  1  0  0  0
  1 14  1  0  0  0
 14 15  1  0  0  0
 15 21  1  0  0  0
 19 20  2  0  0  0
 19 22  1  0  0  0
 20 21  1  0  0  0
 20 23  1  0  0  0
 22 24  1  0  0  0
 23 25  1  0  0  0
M  END
> <minimizedAffinity>
-8.22098

$$$$



 25 25  0  0  0  0  0  0  0  0999 V2000
  -49.6869   56.7990   59.4775 C   0  0  0  0  0  0  0  0  0  0  0  0
  -48.2246   56.4047   59.7325 C   0  0  0  0  0  0  0  0  0  0  0  0
  -47.6504   55.6834   58.5208 C   0  0  0  0  0  0  0  0  0  0  0  0
  -46.7286   56.6327   57.7546 C   0  0  0  0  0  0  0  0  0  0  0  0
  -46.3366   57.8153   58.6402 C   0  0  0  0  0  0  0  0  0  0  0  0
  -47.3909   60.2560   58.5543 C   0  0  0  0  0  0  0  0  0  0  0  0
  -46.6395   59.0995   57.8663 C   0  0  0  0  0  0  0  0  0  0  0  0
  -47.9658   60.1265   59.9732 C   0  0  0  0  0  0  0  0  0  0  0  0
  -47.0769   60.9671   60.9014 C   0  0  0  0  0  0  0  0  0  0  0  0
  -46.1769   60.3195   61.9809 C   0  0  0  0  0  0  0  0  0  0  0  0
  -46.0956   58.7909   62.1608 C   0  0  0  0  0  0  0  0  0  0  0  0
  -43.6631   58.3569   62.7291 C   0  0  0  0  0  0  0  0  0  0  0  0
  -44.7285   58.3378   61.6303 C   0  0  0  0  0  0  0  0  0  0  0  0
  -50.4259   57.2757   60.7548 C   0  0  0  0  0  0  0  0  0  0  0  0
  -49.4697   57.5864   61.9306 C   0  0  0  0  0  0  0  0  0  0  0  0
  -51.5985   60.2118   63.4573 C   0  0  0  0  0  0  0  0  0  0  0  0
  -51.1369   60.2338   64.7801 C   0  0  0  0  0  0  0  0  0  0  0  0
  -51.0341   59.3324   62.5256 C   0  0  0  0  0  0  0  0  0  0  0  0
  -50.1113   59.3627   65.1472 C   0  0  0  0  0  0  0  0  0  0  0  0
  -49.5593   58.4842   64.2164 C   0  0  0  0  0  0  0  0  0  0  0  0
  -50.0285   58.4332   62.8976 C   0  0  0  0  0  0  0  0  0  0  0  0
  -49.6074   59.3238   66.4050 O   0  0  0  0  0  0  0  0  0  0  0  0
  -48.5632   57.6449   64.6228 O   0  0  0  0  0  0  0  0  0  0  0  0
  -49.9477   59.8963   67.0640 H   0  0  0  0  0  0  0  0  0  0  0  0
  -48.2512   57.6810   65.5056 H   0  0  0  0  0  0  0  0  0  0  0  0
 12 13  1  0  0  0
  9 10  2  0  0  0
  9  8  1  0  0  0
  6  7  2  0  0  0
  6  8  1  0  0  0
 10 11  1  0  0  0
  7  5  1  0  0  0
 16 17  2  0  0  0
 16 18  1  0  0  0
 17 19  1  0  0  0
 18 21  2  0  0  0
 13 11  1  0  0  0
  5  4  1  0  0  0
  4  3  1  0  0  0
  3  2  1  0  0  0
  2  1  1  0  0  0
  1 14  1  0  0  0
 14 15  1  0  0  0
 15 21  1  0  0  0
 19 20  2  0  0  0
 19 22  1  0  0  0
 20 21  1  0  0  0
 20 23  1  0  0  0
 22 24  1  0  0  0
 23 25  1  0  0  0
M  END
> <minimizedAffinity>
-8.17351

$$$$
