


 19 18  0  0  0  0  0  0  0  0999 V2000
  -44.8758   57.6628   64.9950 C   0  0  0  0  0  0  0  0  0  0  0  0
  -43.4293   58.1373   65.0133 C   0  0  0  0  0  0  0  0  0  0  0  0
  -42.7702   57.9426   66.3682 C   0  0  0  0  0  0  0  0  0  0  0  0
  -41.8516   59.1134   66.6775 C   0  0  0  0  0  0  0  0  0  0  0  0
  -41.3470   59.7025   65.3725 C   0  0  0  0  0  0  0  0  0  0  0  0
  -39.8386   59.8926   65.3861 C   0  0  0  0  0  0  0  0  0  0  0  0
  -39.5253   61.3420   65.6628 C   0  0  0  0  0  0  0  0  0  0  0  0
  -38.3434   61.7380   65.6552 O   0  0  0  0  0  0  0  0  0  0  0  0
  -40.4329   62.1651   65.9072 O   0  0  0  0  0  0  0  0  0  0  0  0
  -41.3275   61.8867   65.9175 H   0  0  0  0  0  0  0  0  0  0  0  0
  -45.6391   58.5073   66.0049 C   0  0  0  0  0  0  0  0  0  0  0  0
  -46.2851   59.7077   65.3556 C   0  0  0  0  0  0  0  0  0  0  0  0
  -47.7517   59.7847   65.2638 C   0  0  0  0  0  0  0  0  0  0  0  0
  -48.5710   58.5696   65.6196 C   0  0  0  0  0  0  0  0  0  0  0  0
  -49.7914   58.4568   64.7126 C   0  0  0  0  0  0  0  0  0  0  0  0
  -50.1031   59.8095   64.0728 C   0  0  0  0  0  0  0  0  0  0  0  0
  -50.6099   59.6541   62.6397 C   0  0  0  0  0  0  0  0  0  0  0  0
  -49.9284   58.4896   61.9166 C   0  0  0  0  0  0  0  0  0  0  0  0
  -50.8850   57.7023   61.0249 C   0  0  0  0  0  0  0  0  0  0  0  0
  7  8  2  0  0  0
  7  6  1  0  0  0
  7  9  1  0  0  0
  6  5  1  0  0  0
  5  4  1  0  0  0
  4  3  1  0  0  0
  3  2  1  0  0  0
  2  1  1  0  0  0
  1 11  1  0  0  0
 11 12  1  0  0  0
 12 13  2  0  0  0
 13 14  1  0  0  0
 14 15  1  0  0  0
 15 16  1  0  0  0
 16 17  1  0  0  0
 17 18  1  0  0  0
 18 19  1  0  0  0
  9 10  1  0  0  0
M  END
> <minimizedAffinity>
-6.56146

> <CNNscore>
0.8380038738

> <CNNaffinity>
6.3522462845

> <CNN_VS>
5.3232069016

> <CNNaffinity_variance>
0.4819215834

$$$$



 19 18  0  0  0  0  0  0  0  0999 V2000
  -47.5224   58.9139   64.9047 C   0  0  0  0  0  0  0  0  0  0  0  0
  -46.8539   57.7199   65.5720 C   0  0  0  0  0  0  0  0  0  0  0  0
  -45.4134   57.5352   65.1259 C   0  0  0  0  0  0  0  0  0  0  0  0
  -44.4688   58.1944   66.1174 C   0  0  0  0  0  0  0  0  0  0  0  0
  -43.0586   58.1541   65.5569 C   0  0  0  0  0  0  0  0  0  0  0  0
  -42.0614   58.8201   66.4917 C   0  0  0  0  0  0  0  0  0  0  0  0
  -42.3562   60.2980   66.5576 C   0  0  0  0  0  0  0  0  0  0  0  0
  -42.3565   60.9819   65.5155 O   0  0  0  0  0  0  0  0  0  0  0  0
  -42.5988   60.8617   67.6459 O   0  0  0  0  0  0  0  0  0  0  0  0
  -42.6032   60.3646   68.4402 H   0  0  0  0  0  0  0  0  0  0  0  0
  -48.4463   58.3674   63.8260 C   0  0  0  0  0  0  0  0  0  0  0  0
  -49.8654   58.8498   64.0080 C   0  0  0  0  0  0  0  0  0  0  0  0
  -50.6978   59.1261   62.8265 C   0  0  0  0  0  0  0  0  0  0  0  0
  -50.0524   59.1337   61.4635 C   0  0  0  0  0  0  0  0  0  0  0  0
  -50.5318   57.9486   60.6325 C   0  0  0  0  0  0  0  0  0  0  0  0
  -49.6716   57.7985   59.3779 C   0  0  0  0  0  0  0  0  0  0  0  0
  -48.1800   57.8338   59.7072 C   0  0  0  0  0  0  0  0  0  0  0  0
  -47.3367   58.2288   58.4921 C   0  0  0  0  0  0  0  0  0  0  0  0
  -47.7910   57.5444   57.2056 C   0  0  0  0  0  0  0  0  0  0  0  0
  7  8  2  0  0  0
  7  6  1  0  0  0
  7  9  1  0  0  0
  6  5  1  0  0  0
  5  4  1  0  0  0
  4  3  1  0  0  0
  3  2  1  0  0  0
  2  1  1  0  0  0
  1 11  1  0  0  0
 11 12  1  0  0  0
 12 13  2  0  0  0
 13 14  1  0  0  0
 14 15  1  0  0  0
 15 16  1  0  0  0
 16 17  1  0  0  0
 17 18  1  0  0  0
 18 19  1  0  0  0
  9 10  1  0  0  0
M  END
> <minimizedAffinity>
-6.86138

> <CNNscore>
0.7635182142

> <CNNaffinity>
6.3737988472

> <CNN_VS>
4.8665113449

> <CNNaffinity_variance>
0.3786942959

$$$$



 19 18  0  0  0  0  0  0  0  0999 V2000
  -47.0805   60.8693   65.4115 C   0  0  0  0  0  0  0  0  0  0  0  0
  -46.1837   59.9524   66.2317 C   0  0  0  0  0  0  0  0  0  0  0  0
  -45.0424   59.3714   65.4144 C   0  0  0  0  0  0  0  0  0  0  0  0
  -44.0988   60.4775   64.9712 C   0  0  0  0  0  0  0  0  0  0  0  0
  -42.7808   59.8588   64.5416 C   0  0  0  0  0  0  0  0  0  0  0  0
  -41.7730   60.9161   64.1197 C   0  0  0  0  0  0  0  0  0  0  0  0
  -40.8694   61.2313   65.2857 C   0  0  0  0  0  0  0  0  0  0  0  0
  -41.1172   62.2060   66.0222 O   0  0  0  0  0  0  0  0  0  0  0  0
  -39.8631   60.5331   65.5320 O   0  0  0  0  0  0  0  0  0  0  0  0
  -39.6600   59.7962   64.9899 H   0  0  0  0  0  0  0  0  0  0  0  0
  -48.5159   60.5873   65.8308 C   0  0  0  0  0  0  0  0  0  0  0  0
  -48.8830   59.1368   65.6284 C   0  0  0  0  0  0  0  0  0  0  0  0
  -49.8531   58.7698   64.5846 C   0  0  0  0  0  0  0  0  0  0  0  0
  -50.6243   59.8623   63.8873 C   0  0  0  0  0  0  0  0  0  0  0  0
  -50.6414   59.6334   62.3799 C   0  0  0  0  0  0  0  0  0  0  0  0
  -50.2140   58.2019   62.0563 C   0  0  0  0  0  0  0  0  0  0  0  0
  -50.9854   57.6369   60.8645 C   0  0  0  0  0  0  0  0  0  0  0  0
  -50.2530   57.8822   59.5428 C   0  0  0  0  0  0  0  0  0  0  0  0
  -48.7398   57.9889   59.7127 C   0  0  0  0  0  0  0  0  0  0  0  0
  7  8  2  0  0  0
  7  6  1  0  0  0
  7  9  1  0  0  0
  6  5  1  0  0  0
  5  4  1  0  0  0
  4  3  1  0  0  0
  3  2  1  0  0  0
  2  1  1  0  0  0
  1 11  1  0  0  0
 11 12  1  0  0  0
 12 13  2  0  0  0
 13 14  1  0  0  0
 14 15  1  0  0  0
 15 16  1  0  0  0
 16 17  1  0  0  0
 17 18  1  0  0  0
 18 19  1  0  0  0
  9 10  1  0  0  0
M  END
> <minimizedAffinity>
-6.74248

> <CNNscore>
0.7594124675

> <CNNaffinity>
6.2991662025

> <CNN_VS>
4.7836651802

> <CNNaffinity_variance>
0.5617588162

$$$$



 19 18  0  0  0  0  0  0  0  0999 V2000
  -47.7113   60.8811   66.0644 C   0  0  0  0  0  0  0  0  0  0  0  0
  -46.4612   60.7633   65.2036 C   0  0  0  0  0  0  0  0  0  0  0  0
  -45.6840   59.4870   65.4778 C   0  0  0  0  0  0  0  0  0  0  0  0
  -44.5819   59.7515   66.4904 C   0  0  0  0  0  0  0  0  0  0  0  0
  -43.4260   60.4444   65.7917 C   0  0  0  0  0  0  0  0  0  0  0  0
  -42.3570   60.8894   66.7770 C   0  0  0  0  0  0  0  0  0  0  0  0
  -41.0916   61.2116   66.0217 C   0  0  0  0  0  0  0  0  0  0  0  0
  -40.4751   60.3091   65.4224 O   0  0  0  0  0  0  0  0  0  0  0  0
  -40.6380   62.3751   65.9855 O   0  0  0  0  0  0  0  0  0  0  0  0
  -41.0871   63.0671   66.4297 H   0  0  0  0  0  0  0  0  0  0  0  0
  -48.8908   61.0689   65.1214 C   0  0  0  0  0  0  0  0  0  0  0  0
  -49.9574   60.0237   65.3448 C   0  0  0  0  0  0  0  0  0  0  0  0
  -49.9970   58.8287   64.4870 C   0  0  0  0  0  0  0  0  0  0  0  0
  -49.1128   58.7758   63.2664 C   0  0  0  0  0  0  0  0  0  0  0  0
  -49.9192   59.0554   62.0030 C   0  0  0  0  0  0  0  0  0  0  0  0
  -50.0632   57.7799   61.1731 C   0  0  0  0  0  0  0  0  0  0  0  0
  -50.4537   58.0863   59.7280 C   0  0  0  0  0  0  0  0  0  0  0  0
  -49.3806   57.6274   58.7374 C   0  0  0  0  0  0  0  0  0  0  0  0
  -47.9615   57.8905   59.2344 C   0  0  0  0  0  0  0  0  0  0  0  0
  7  8  2  0  0  0
  7  6  1  0  0  0
  7  9  1  0  0  0
  6  5  1  0  0  0
  5  4  1  0  0  0
  4  3  1  0  0  0
  3  2  1  0  0  0
  2  1  1  0  0  0
  1 11  1  0  0  0
 11 12  1  0  0  0
 12 13  2  0  0  0
 13 14  1  0  0  0
 14 15  1  0  0  0
 15 16  1  0  0  0
 16 17  1  0  0  0
 17 18  1  0  0  0
 18 19  1  0  0  0
  9 10  1  0  0  0
M  END
> <minimizedAffinity>
-6.92425

> <CNNscore>
0.7551767826

> <CNNaffinity>
6.0863733292

> <CNN_VS>
4.5962877274

> <CNNaffinity_variance>
0.2761636972

$$$$



 19 18  0  0  0  0  0  0  0  0999 V2000
  -48.6099   58.5261   65.4838 C   0  0  0  0  0  0  0  0  0  0  0  0
  -47.3663   57.7344   65.8637 C   0  0  0  0  0  0  0  0  0  0  0  0
  -46.5732   58.3960   66.9779 C   0  0  0  0  0  0  0  0  0  0  0  0
  -46.0817   59.7631   66.5312 C   0  0  0  0  0  0  0  0  0  0  0  0
  -44.5656   59.7422   66.4571 C   0  0  0  0  0  0  0  0  0  0  0  0
  -44.0742   59.2934   65.0901 C   0  0  0  0  0  0  0  0  0  0  0  0
  -43.4415   57.9297   65.2153 C   0  0  0  0  0  0  0  0  0  0  0  0
  -44.0722   56.9139   64.8631 O   0  0  0  0  0  0  0  0  0  0  0  0
  -42.2875   57.7913   65.6735 O   0  0  0  0  0  0  0  0  0  0  0  0
  -41.7974   58.5428   65.9436 H   0  0  0  0  0  0  0  0  0  0  0  0
  -48.7086   58.5074   63.9653 C   0  0  0  0  0  0  0  0  0  0  0  0
  -49.8973   59.2971   63.4723 C   0  0  0  0  0  0  0  0  0  0  0  0
  -50.5818   58.8872   62.2358 C   0  0  0  0  0  0  0  0  0  0  0  0
  -49.9527   57.8245   61.3703 C   0  0  0  0  0  0  0  0  0  0  0  0
  -50.1051   58.1710   59.8933 C   0  0  0  0  0  0  0  0  0  0  0  0
  -48.7418   58.1573   59.2023 C   0  0  0  0  0  0  0  0  0  0  0  0
  -48.7704   57.3413   57.9108 C   0  0  0  0  0  0  0  0  0  0  0  0
  -47.5158   57.5697   57.0637 C   0  0  0  0  0  0  0  0  0  0  0  0
  -46.6141   58.6679   57.6212 C   0  0  0  0  0  0  0  0  0  0  0  0
  7  8  2  0  0  0
  7  6  1  0  0  0
  7  9  1  0  0  0
  6  5  1  0  0  0
  5  4  1  0  0  0
  4  3  1  0  0  0
  3  2  1  0  0  0
  2  1  1  0  0  0
  1 11  1  0  0  0
 11 12  1  0  0  0
 12 13  2  0  0  0
 13 14  1  0  0  0
 14 15  1  0  0  0
 15 16  1  0  0  0
 16 17  1  0  0  0
 17 18  1  0  0  0
 18 19  1  0  0  0
  9 10  1  0  0  0
M  END
> <minimizedAffinity>
-7.00181

> <CNNscore>
0.7519513369

> <CNNaffinity>
6.2706212997

> <CNN_VS>
4.7152018547

> <CNNaffinity_variance>
0.2860123217

$$$$



 19 18  0  0  0  0  0  0  0  0999 V2000
  -44.2436   59.9773   65.7946 C   0  0  0  0  0  0  0  0  0  0  0  0
  -43.0413   60.0868   66.7221 C   0  0  0  0  0  0  0  0  0  0  0  0
  -41.9114   59.1529   66.3229 C   0  0  0  0  0  0  0  0  0  0  0  0
  -41.3214   59.5835   64.9900 C   0  0  0  0  0  0  0  0  0  0  0  0
  -39.8194   59.3657   65.0221 C   0  0  0  0  0  0  0  0  0  0  0  0
  -39.4260   58.0537   64.3621 C   0  0  0  0  0  0  0  0  0  0  0  0
  -38.6610   58.3472   63.0956 C   0  0  0  0  0  0  0  0  0  0  0  0
  -37.7536   57.5787   62.7218 O   0  0  0  0  0  0  0  0  0  0  0  0
  -38.9148   59.3572   62.4054 O   0  0  0  0  0  0  0  0  0  0  0  0
  -39.5933   59.9469   62.6698 H   0  0  0  0  0  0  0  0  0  0  0  0
  -45.4221   59.5140   66.6386 C   0  0  0  0  0  0  0  0  0  0  0  0
  -45.6531   58.0275   66.5084 C   0  0  0  0  0  0  0  0  0  0  0  0
  -46.9187   57.5340   65.9427 C   0  0  0  0  0  0  0  0  0  0  0  0
  -48.0442   58.5101   65.7087 C   0  0  0  0  0  0  0  0  0  0  0  0
  -48.3673   58.6153   64.2223 C   0  0  0  0  0  0  0  0  0  0  0  0
  -49.8807   58.6364   64.0090 C   0  0  0  0  0  0  0  0  0  0  0  0
  -50.2491   59.1576   62.6208 C   0  0  0  0  0  0  0  0  0  0  0  0
  -49.8417   58.1783   61.5170 C   0  0  0  0  0  0  0  0  0  0  0  0
  -51.0358   57.4811   60.8706 C   0  0  0  0  0  0  0  0  0  0  0  0
  7  8  2  0  0  0
  7  6  1  0  0  0
  7  9  1  0  0  0
  6  5  1  0  0  0
  5  4  1  0  0  0
  4  3  1  0  0  0
  3  2  1  0  0  0
  2  1  1  0  0  0
  1 11  1  0  0  0
 11 12  1  0  0  0
 12 13  2  0  0  0
 13 14  1  0  0  0
 14 15  1  0  0  0
 15 16  1  0  0  0
 16 17  1  0  0  0
 17 18  1  0  0  0
 18 19  1  0  0  0
  9 10  1  0  0  0
M  END
> <minimizedAffinity>
-6.43309

> <CNNscore>
0.7312506437

> <CNNaffinity>
6.1675944328

> <CNN_VS>
4.5100574493

> <CNNaffinity_variance>
0.3062586188

$$$$



 19 18  0  0  0  0  0  0  0  0999 V2000
  -45.1506   59.4884   66.3359 C   0  0  0  0  0  0  0  0  0  0  0  0
  -43.9841   60.2034   65.6682 C   0  0  0  0  0  0  0  0  0  0  0  0
  -42.7897   60.3585   66.5943 C   0  0  0  0  0  0  0  0  0  0  0  0
  -42.0759   59.0265   66.7569 C   0  0  0  0  0  0  0  0  0  0  0  0
  -41.5715   58.5684   65.4004 C   0  0  0  0  0  0  0  0  0  0  0  0
  -40.1789   59.1036   65.1069 C   0  0  0  0  0  0  0  0  0  0  0  0
  -40.1871   59.7943   63.7658 C   0  0  0  0  0  0  0  0  0  0  0  0
  -41.0745   60.6277   63.4980 O   0  0  0  0  0  0  0  0  0  0  0  0
  -39.3177   59.5448   62.9040 O   0  0  0  0  0  0  0  0  0  0  0  0
  -38.6424   58.9214   63.0865 H   0  0  0  0  0  0  0  0  0  0  0  0
  -45.9498   58.8065   65.2350 C   0  0  0  0  0  0  0  0  0  0  0  0
  -47.0338   57.9192   65.7985 C   0  0  0  0  0  0  0  0  0  0  0  0
  -48.3298   57.8246   65.1079 C   0  0  0  0  0  0  0  0  0  0  0  0
  -48.6274   58.7791   63.9789 C   0  0  0  0  0  0  0  0  0  0  0  0
  -50.0764   58.6424   63.5242 C   0  0  0  0  0  0  0  0  0  0  0  0
  -50.2199   59.0900   62.0697 C   0  0  0  0  0  0  0  0  0  0  0  0
  -50.7328   57.9601   61.1781 C   0  0  0  0  0  0  0  0  0  0  0  0
  -49.5894   57.2261   60.4728 C   0  0  0  0  0  0  0  0  0  0  0  0
  -48.8703   58.0951   59.4443 C   0  0  0  0  0  0  0  0  0  0  0  0
  7  8  2  0  0  0
  7  6  1  0  0  0
  7  9  1  0  0  0
  6  5  1  0  0  0
  5  4  1  0  0  0
  4  3  1  0  0  0
  3  2  1  0  0  0
  2  1  1  0  0  0
  1 11  1  0  0  0
 11 12  1  0  0  0
 12 13  2  0  0  0
 13 14  1  0  0  0
 14 15  1  0  0  0
 15 16  1  0  0  0
 16 17  1  0  0  0
 17 18  1  0  0  0
 18 19  1  0  0  0
  9 10  1  0  0  0
M  END
> <minimizedAffinity>
-6.37831

> <CNNscore>
0.7293421030

> <CNNaffinity>
6.2805418968

> <CNN_VS>
4.5806636810

> <CNNaffinity_variance>
0.3722822070

$$$$



 19 18  0  0  0  0  0  0  0  0999 V2000
  -48.7682   59.8231   65.2762 C   0  0  0  0  0  0  0  0  0  0  0  0
  -47.6049   58.9557   64.8159 C   0  0  0  0  0  0  0  0  0  0  0  0
  -47.6247   57.5734   65.4461 C   0  0  0  0  0  0  0  0  0  0  0  0
  -46.2506   57.2284   65.9966 C   0  0  0  0  0  0  0  0  0  0  0  0
  -45.1923   57.7251   65.0281 C   0  0  0  0  0  0  0  0  0  0  0  0
  -43.8326   57.8528   65.6962 C   0  0  0  0  0  0  0  0  0  0  0  0
  -43.6047   59.2932   66.0823 C   0  0  0  0  0  0  0  0  0  0  0  0
  -42.6374   59.6002   66.8061 O   0  0  0  0  0  0  0  0  0  0  0  0
  -44.3743   60.1971   65.6931 O   0  0  0  0  0  0  0  0  0  0  0  0
  -45.1070   59.9863   65.1484 H   0  0  0  0  0  0  0  0  0  0  0  0
  -50.0481   59.1390   64.8183 C   0  0  0  0  0  0  0  0  0  0  0  0
  -50.7327   59.9126   63.7171 C   0  0  0  0  0  0  0  0  0  0  0  0
  -50.8285   59.3304   62.3691 C   0  0  0  0  0  0  0  0  0  0  0  0
  -50.0526   58.0751   62.0585 C   0  0  0  0  0  0  0  0  0  0  0  0
  -50.6107   57.3888   60.8166 C   0  0  0  0  0  0  0  0  0  0  0  0
  -50.3063   58.2195   59.5701 C   0  0  0  0  0  0  0  0  0  0  0  0
  -49.1869   57.5984   58.7360 C   0  0  0  0  0  0  0  0  0  0  0  0
  -47.8157   58.1700   59.1054 C   0  0  0  0  0  0  0  0  0  0  0  0
  -46.9072   58.3650   57.8943 C   0  0  0  0  0  0  0  0  0  0  0  0
  7  8  2  0  0  0
  7  6  1  0  0  0
  7  9  1  0  0  0
  6  5  1  0  0  0
  5  4  1  0  0  0
  4  3  1  0  0  0
  3  2  1  0  0  0
  2  1  1  0  0  0
  1 11  1  0  0  0
 11 12  1  0  0  0
 12 13  2  0  0  0
 13 14  1  0  0  0
 14 15  1  0  0  0
 15 16  1  0  0  0
 16 17  1  0  0  0
 17 18  1  0  0  0
 18 19  1  0  0  0
  9 10  1  0  0  0
M  END
> <minimizedAffinity>
-6.95937

> <CNNscore>
0.6926972270

> <CNNaffinity>
6.3982138634

> <CNN_VS>
4.4320249557

> <CNNaffinity_variance>
0.2728104591

$$$$



 19 18  0  0  0  0  0  0  0  0999 V2000
  -50.3528   58.9157   61.4090 C   0  0  0  0  0  0  0  0  0  0  0  0
  -50.5671   57.4850   60.9347 C   0  0  0  0  0  0  0  0  0  0  0  0
  -49.5063   57.0352   59.9444 C   0  0  0  0  0  0  0  0  0  0  0  0
  -48.7054   58.2306   59.4551 C   0  0  0  0  0  0  0  0  0  0  0  0
  -47.3417   57.7534   58.9892 C   0  0  0  0  0  0  0  0  0  0  0  0
  -47.0939   58.0949   57.5285 C   0  0  0  0  0  0  0  0  0  0  0  0
  -47.7051   57.0238   56.6597 C   0  0  0  0  0  0  0  0  0  0  0  0
  -47.6526   55.8291   57.0114 O   0  0  0  0  0  0  0  0  0  0  0  0
  -48.2657   57.3079   55.5800 O   0  0  0  0  0  0  0  0  0  0  0  0
  -48.3153   58.2002   55.2984 H   0  0  0  0  0  0  0  0  0  0  0  0
  -50.3619   58.8914   62.9305 C   0  0  0  0  0  0  0  0  0  0  0  0
  -51.1747   60.0277   63.5031 C   0  0  0  0  0  0  0  0  0  0  0  0
  -50.8859   60.5181   64.8601 C   0  0  0  0  0  0  0  0  0  0  0  0
  -49.9360   59.7367   65.7327 C   0  0  0  0  0  0  0  0  0  0  0  0
  -48.7279   60.5863   66.1116 C   0  0  0  0  0  0  0  0  0  0  0  0
  -47.6027   60.3905   65.0958 C   0  0  0  0  0  0  0  0  0  0  0  0
  -46.2644   60.1157   65.7799 C   0  0  0  0  0  0  0  0  0  0  0  0
  -46.4278   59.2310   67.0185 C   0  0  0  0  0  0  0  0  0  0  0  0
  -46.3406   57.7407   66.7001 C   0  0  0  0  0  0  0  0  0  0  0  0
  7  8  2  0  0  0
  7  6  1  0  0  0
  7  9  1  0  0  0
  6  5  1  0  0  0
  5  4  1  0  0  0
  4  3  1  0  0  0
  3  2  1  0  0  0
  2  1  1  0  0  0
  1 11  1  0  0  0
 11 12  1  0  0  0
 12 13  2  0  0  0
 13 14  1  0  0  0
 14 15  1  0  0  0
 15 16  1  0  0  0
 16 17  1  0  0  0
 17 18  1  0  0  0
 18 19  1  0  0  0
  9 10  1  0  0  0
M  END
> <minimizedAffinity>
-7.56451

> <CNNscore>
0.6894629002

> <CNNaffinity>
6.2873992920

> <CNN_VS>
4.3349285126

> <CNNaffinity_variance>
0.3909218907

$$$$
