


 61 61  0  0  0  0  0  0  0  0999 V2000
  -39.2555   60.2683   63.9464 C   0  0  0  0  0  0  0  0  0  0  0  0
  -40.0246   59.5237   62.9690 N   0  0  0  0  0  0  0  0  0  0  0  0
  -41.1429   61.1749   61.8871 O   0  0  0  0  0  0  0  0  0  0  0  0
  -40.8725   60.0005   62.0475 C   0  0  0  0  0  0  0  0  0  0  0  0
  -39.9097   58.5461   62.9841 H   0  0  0  0  0  0  0  0  0  0  0  0
  -41.5044   58.9647   61.1657 C   0  0  0  0  0  0  0  0  0  0  0  0
  -40.9331   59.1818   59.7643 C   0  0  0  0  0  0  0  0  0  0  0  0
  -39.8679   58.1293   59.4666 C   0  0  0  0  0  0  0  0  0  0  0  0
  -38.4459   58.5125   59.7977 C   0  0  0  0  0  0  0  0  0  0  0  0
  -38.0551   57.7747   61.0740 C   0  0  0  0  0  0  0  0  0  0  0  0
  -36.8154   58.3753   61.7502 C   0  0  0  0  0  0  0  0  0  0  0  0
  -36.5726   57.8735   63.1854 C   0  0  0  0  0  0  0  0  0  0  0  0
  -35.0760   57.6610   63.5021 C   0  0  0  0  0  0  0  0  0  0  0  0
  -34.1991   58.4007   62.4877 C   0  0  0  0  0  0  0  0  0  0  0  0
  -33.4131   59.5779   63.0521 C   0  0  0  0  0  0  0  0  0  0  0  0
  -32.3250   60.0546   62.1013 C   0  0  0  0  0  0  0  0  0  0  0  0
  -30.8907   59.9762   62.6295 C   0  0  0  0  0  0  0  0  0  0  0  0
  -29.9651   60.5846   61.5845 C   0  0  0  0  0  0  0  0  0  0  0  0
  -28.4660   60.5757   61.8445 C   0  0  0  0  0  0  0  0  0  0  0  0
  -28.0780   61.6598   62.8625 C   0  0  0  0  0  0  0  0  0  0  0  0
  -28.6140   63.0654   62.5340 C   0  0  0  0  0  0  0  0  0  0  0  0
  -29.4811   63.6557   63.6436 C   0  0  0  0  0  0  0  0  0  0  0  0
  -39.5313   61.1109   66.0934 O   0  0  0  0  0  0  0  0  0  0  0  0
  -40.2788   60.5396   65.0358 C   0  0  0  0  0  0  0  0  0  0  0  0
  -39.1277   61.9402   65.7929 H   0  0  0  0  0  0  0  0  0  0  0  0
  -40.9443   59.2236   65.4452 C   0  0  0  0  0  0  0  0  0  0  0  0
  -42.2474   59.1296   65.7605 C   0  0  0  0  0  0  0  0  0  0  0  0
  -42.8373   57.7785   66.1605 C   0  0  0  0  0  0  0  0  0  0  0  0
  -44.1190   57.4098   65.3993 C   0  0  0  0  0  0  0  0  0  0  0  0
  -44.8298   58.5754   64.6870 C   0  0  0  0  0  0  0  0  0  0  0  0
  -46.2666   58.7582   65.2326 C   0  0  0  0  0  0  0  0  0  0  0  0
  -47.2476   59.4892   64.2815 C   0  0  0  0  0  0  0  0  0  0  0  0
  -48.5630   58.7201   64.0151 C   0  0  0  0  0  0  0  0  0  0  0  0
  -49.1988   59.0401   62.6448 C   0  0  0  0  0  0  0  0  0  0  0  0
  -50.3964   58.1482   62.2961 C   0  0  0  0  0  0  0  0  0  0  0  0
  -50.6219   57.8779   60.8100 C   0  0  0  0  0  0  0  0  0  0  0  0
  -49.3796   57.3341   60.0772 C   0  0  0  0  0  0  0  0  0  0  0  0
  -48.7628   58.2849   59.0401 C   0  0  0  0  0  0  0  0  0  0  0  0
  -47.5047   57.6753   58.4150 C   0  0  0  0  0  0  0  0  0  0  0  0
  -47.0112   58.3158   57.1298 C   0  0  0  0  0  0  0  0  0  0  0  0
  -38.4792   61.4858   63.3952 C   0  0  0  0  0  0  0  0  0  0  0  0
  -37.8247   62.3339   64.3729 O   0  0  0  0  0  0  0  0  0  0  0  0
  -36.7731   64.3566   62.6466 O   0  0  0  0  0  0  0  0  0  0  0  0
  -34.2763   65.1015   65.9039 O   0  0  0  0  0  0  0  0  0  0  0  0
  -35.6639   62.4479   65.4700 O   0  0  0  0  0  0  0  0  0  0  0  0
  -36.3973   62.6892   64.2446 C   0  0  0  0  0  0  0  0  0  0  0  0
  -36.0956   64.1410   63.8461 C   0  0  0  0  0  0  0  0  0  0  0  0
  -34.5948   64.4211   63.6126 C   0  0  0  0  0  0  0  0  0  0  0  0
  -33.9062   64.1394   64.9194 C   0  0  0  0  0  0  0  0  0  0  0  0
  -34.2418   62.7338   65.3843 C   0  0  0  0  0  0  0  0  0  0  0  0
  -37.7192   64.1852   62.7744 H   0  0  0  0  0  0  0  0  0  0  0  0
  -34.0534   65.9907   65.5868 H   0  0  0  0  0  0  0  0  0  0  0  0
  -34.2543   63.1727   67.7340 O   0  0  0  0  0  0  0  0  0  0  0  0
  -33.4694   62.6597   66.6997 C   0  0  0  0  0  0  0  0  0  0  0  0
  -33.7616   63.1245   68.5682 H   0  0  0  0  0  0  0  0  0  0  0  0
  -34.2503   65.7806   63.2618 O   0  0  0  0  0  0  0  0  0  0  0  0
  -33.3166   67.6336   61.7088 O   0  0  0  0  0  0  0  0  0  0  0  0
  -35.2069   66.2989   60.9776 O   0  0  0  0  0  0  0  0  0  0  0  0
  -32.9757   65.3521   60.9844 O   0  0  0  0  0  0  0  0  0  0  0  0
  -33.9092   66.2634   61.7053 S   0  0  0  0  0  0  0  0  0  0  0  0
  -32.1266   65.3230   61.4523 H   0  0  0  0  0  0  0  0  0  0  0  0
  2  1  1  0  0  0
  2  4  1  0  0  0
 41 42  1  0  0  0
 41  1  1  0  0  0
 42 46  1  0  0  0
  1 24  1  0  0  0
 23 24  1  0  0  0
 24 26  1  0  0  0
  3  4  2  0  0  0
 26 27  2  0  0  0
 27 28  1  0  0  0
 43 47  1  0  0  0
 28 29  1  0  0  0
 56 48  1  0  0  0
 56 60  1  0  0  0
 29 30  1  0  0  0
 57 60  2  0  0  0
 30 31  1  0  0  0
 44 49  1  0  0  0
 31 32  1  0  0  0
 45 46  1  0  0  0
 45 50  1  0  0  0
 32 33  1  0  0  0
 53 54  1  0  0  0
 33 34  1  0  0  0
 34 35  1  0  0  0
 35 36  1  0  0  0
 58 60  2  0  0  0
 36 37  1  0  0  0
 59 60  1  0  0  0
 37 38  1  0  0  0
 38 39  1  0  0  0
 39 40  1  0  0  0
  4  6  1  0  0  0
  6  7  1  0  0  0
  7  8  1  0  0  0
  8  9  1  0  0  0
  9 10  1  0  0  0
 10 11  1  0  0  0
 11 12  1  0  0  0
 12 13  1  0  0  0
 13 14  1  0  0  0
 14 15  1  0  0  0
 15 16  1  0  0  0
 16 17  1  0  0  0
 17 18  1  0  0  0
 18 19  1  0  0  0
 19 20  1  0  0  0
 20 21  1  0  0  0
 21 22  1  0  0  0
 46 47  1  0  0  0
 47 48  1  0  0  0
 48 49  1  0  0  0
 49 50  1  0  0  0
 50 54  1  0  0  0
  2  5  1  0  0  0
 23 25  1  0  0  0
 43 51  1  0  0  0
 44 52  1  0  0  0
 53 55  1  0  0  0
 59 61  1  0  0  0
M  CHG 1  58  -1
M  END
> <minimizedAffinity>
-8.85176

> <minimizedRMSD>
1.64931

> <CNNscore>
0.2955437005

> <CNNaffinity>
6.9159560204

> <CNN_VS>
2.0439672470

> <CNNaffinity_variance>
1.1192399263

$$$$
