


 37 36  0  0  0  0  0  0  0  0999 V2000
  -41.5663   60.9095   64.7162 O   0  0  0  0  0  0  0  0  0  0  0  0
  -41.2774   60.1968   65.6281 C   0  0  0  0  0  0  0  0  0  0  0  0
  -42.2659   59.5425   66.5369 C   0  0  0  0  0  0  0  0  0  0  0  0
  -43.0932   58.4778   65.8415 C   0  0  0  0  0  0  0  0  0  0  0  0
  -44.5028   58.9346   65.5338 C   0  0  0  0  0  0  0  0  0  0  0  0
  -45.5725   58.2700   66.3680 C   0  0  0  0  0  0  0  0  0  0  0  0
  -46.3083   57.1670   65.6509 C   0  0  0  0  0  0  0  0  0  0  0  0
  -47.7236   57.0096   66.1385 C   0  0  0  0  0  0  0  0  0  0  0  0
  -48.7366   57.8916   65.4706 C   0  0  0  0  0  0  0  0  0  0  0  0
  -48.3526   58.2933   64.1096 C   0  0  0  0  0  0  0  0  0  0  0  0
  -49.1420   58.5805   63.0982 C   0  0  0  0  0  0  0  0  0  0  0  0
  -50.6264   58.5960   63.0734 C   0  0  0  0  0  0  0  0  0  0  0  0
  -51.2626   58.1486   61.7733 C   0  0  0  0  0  0  0  0  0  0  0  0
  -50.3708   57.2405   60.9719 C   0  0  0  0  0  0  0  0  0  0  0  0
  -49.8536   57.8383   59.6886 C   0  0  0  0  0  0  0  0  0  0  0  0
  -49.0213   56.8625   58.8864 C   0  0  0  0  0  0  0  0  0  0  0  0
  -47.8126   57.4588   58.2206 C   0  0  0  0  0  0  0  0  0  0  0  0
  -47.4777   56.8122   56.9365 C   0  0  0  0  0  0  0  0  0  0  0  0
  -47.3811   55.3566   57.0277 C   0  0  0  0  0  0  0  0  0  0  0  0
  -40.0236   59.8941   65.9646 O   0  0  0  0  0  0  0  0  0  0  0  0
  -39.4836   58.6465   65.4749 C   0  0  0  0  0  0  0  0  0  0  0  0
  -38.7354   58.9577   64.1990 C   0  0  0  0  0  0  0  0  0  0  0  0
  -37.4011   58.4595   64.2961 O   0  0  0  0  0  0  0  0  0  0  0  0
  -37.4219   57.4930   64.3768 H   0  0  0  0  0  0  0  0  0  0  0  0
  -39.3596   58.4039   62.9412 C   0  0  0  0  0  0  0  0  0  0  0  0
  -39.4926   59.4748   61.9850 O   0  0  0  0  0  0  0  0  0  0  0  0
  -38.2601   59.8561   61.0549 P   0  0  0  0  0  0  0  0  0  0  0  0
  -38.7751   59.9590   59.6746 O   0  0  0  0  0  0  0  0  0  0  0  0
  -37.6084   61.0297   61.6689 O   0  0  0  0  0  0  0  0  0  0  0  0
  -38.2204   61.7822   61.6576 H   0  0  0  0  0  0  0  0  0  0  0  0
  -37.2164   58.6622   61.1015 O   0  0  0  0  0  0  0  0  0  0  0  0
  -37.5012   57.4325   60.3941 C   0  0  0  0  0  0  0  0  0  0  0  0
  -36.2654   56.5742   60.5417 C   0  0  0  0  0  0  0  0  0  0  0  0
  -35.7941   55.8590   59.2911 N   0  0  0  0  0  0  0  0  0  0  0  0
  -36.8109   55.9554   58.1994 C   0  0  0  0  0  0  0  0  0  0  0  0
  -35.5593   54.4150   59.5992 C   0  0  0  0  0  0  0  0  0  0  0  0
  -34.5176   56.4757   58.8119 C   0  0  0  0  0  0  0  0  0  0  0  0
 34 33  1  0  0  0
 34 35  1  0  0  0
 34 36  1  0  0  0
 34 37  1  0  0  0
 22 23  1  0  0  0
 22 25  1  0  0  0
 22 21  1  0  0  0
 27 26  1  0  0  0
 27 28  2  0  0  0
 27 31  1  0  0  0
 27 29  1  0  0  0
 25 26  1  0  0  0
 32 33  1  0  0  0
 32 31  1  0  0  0
 20 21  1  0  0  0
 20  2  1  0  0  0
  1  2  2  0  0  0
  2  3  1  0  0  0
  3  4  1  0  0  0
  4  5  1  0  0  0
  5  6  1  0  0  0
  6  7  1  0  0  0
  7  8  1  0  0  0
  8  9  1  0  0  0
  9 10  1  0  0  0
 10 11  2  0  0  0
 11 12  1  0  0  0
 12 13  1  0  0  0
 13 14  1  0  0  0
 14 15  1  0  0  0
 15 16  1  0  0  0
 16 17  1  0  0  0
 17 18  1  0  0  0
 18 19  1  0  0  0
 23 24  1  0  0  0
 29 30  1  0  0  0
M  CHG 1  28  -1
M  END
> <minimizedAffinity>
-8.24591

> <CNNscore>
0.8658190966

> <CNNaffinity>
7.0521569252

> <CNN_VS>
6.1058921814

> <CNNaffinity_variance>
0.2804745138

$$$$



 37 36  0  0  0  0  0  0  0  0999 V2000
  -43.1518   56.8995   66.1828 O   0  0  0  0  0  0  0  0  0  0  0  0
  -43.0617   58.0885   66.1498 C   0  0  0  0  0  0  0  0  0  0  0  0
  -43.8670   59.0219   66.9933 C   0  0  0  0  0  0  0  0  0  0  0  0
  -45.3615   58.8690   66.7820 C   0  0  0  0  0  0  0  0  0  0  0  0
  -45.8269   59.4143   65.4492 C   0  0  0  0  0  0  0  0  0  0  0  0
  -47.2530   59.9124   65.4400 C   0  0  0  0  0  0  0  0  0  0  0  0
  -48.1807   59.1237   66.3286 C   0  0  0  0  0  0  0  0  0  0  0  0
  -48.8171   57.9648   65.6093 C   0  0  0  0  0  0  0  0  0  0  0  0
  -49.1778   58.2166   64.1752 C   0  0  0  0  0  0  0  0  0  0  0  0
  -50.5787   58.6214   63.9889 C   0  0  0  0  0  0  0  0  0  0  0  0
  -51.2156   58.8342   62.8586 C   0  0  0  0  0  0  0  0  0  0  0  0
  -50.6924   58.6992   61.4757 C   0  0  0  0  0  0  0  0  0  0  0  0
  -51.0063   57.3886   60.7835 C   0  0  0  0  0  0  0  0  0  0  0  0
  -49.9323   56.9694   59.8178 C   0  0  0  0  0  0  0  0  0  0  0  0
  -48.6490   57.7527   59.9246 C   0  0  0  0  0  0  0  0  0  0  0  0
  -47.4882   57.0631   59.2423 C   0  0  0  0  0  0  0  0  0  0  0  0
  -47.1274   57.6169   57.8921 C   0  0  0  0  0  0  0  0  0  0  0  0
  -47.3942   56.6751   56.7871 C   0  0  0  0  0  0  0  0  0  0  0  0
  -47.6131   55.3014   57.2358 C   0  0  0  0  0  0  0  0  0  0  0  0
  -42.2294   58.7473   65.3435 O   0  0  0  0  0  0  0  0  0  0  0  0
  -40.8135   58.5094   65.5071 C   0  0  0  0  0  0  0  0  0  0  0  0
  -40.1260   59.8530   65.4259 C   0  0  0  0  0  0  0  0  0  0  0  0
  -40.8831   60.8199   66.1538 O   0  0  0  0  0  0  0  0  0  0  0  0
  -40.9034   60.5750   67.0921 H   0  0  0  0  0  0  0  0  0  0  0  0
  -38.7065   59.8761   65.9387 C   0  0  0  0  0  0  0  0  0  0  0  0
  -38.3314   61.2456   66.1893 O   0  0  0  0  0  0  0  0  0  0  0  0
  -36.9556   61.8015   65.6172 P   0  0  0  0  0  0  0  0  0  0  0  0
  -36.1223   60.6298   65.2795 O   0  0  0  0  0  0  0  0  0  0  0  0
  -37.2942   62.7726   64.5583 O   0  0  0  0  0  0  0  0  0  0  0  0
  -37.7435   62.3144   63.8310 H   0  0  0  0  0  0  0  0  0  0  0  0
  -36.2263   62.6049   66.7747 O   0  0  0  0  0  0  0  0  0  0  0  0
  -34.7966   62.8176   66.7093 C   0  0  0  0  0  0  0  0  0  0  0  0
  -34.5963   64.3136   66.7959 C   0  0  0  0  0  0  0  0  0  0  0  0
  -33.7398   64.9380   65.7122 N   0  0  0  0  0  0  0  0  0  0  0  0
  -32.7494   63.9555   65.1750 C   0  0  0  0  0  0  0  0  0  0  0  0
  -32.9963   66.1073   66.2738 C   0  0  0  0  0  0  0  0  0  0  0  0
  -34.6124   65.4012   64.5882 C   0  0  0  0  0  0  0  0  0  0  0  0
 34 33  1  0  0  0
 34 35  1  0  0  0
 34 36  1  0  0  0
 34 37  1  0  0  0
 22 23  1  0  0  0
 22 25  1  0  0  0
 22 21  1  0  0  0
 27 26  1  0  0  0
 27 28  2  0  0  0
 27 31  1  0  0  0
 27 29  1  0  0  0
 25 26  1  0  0  0
 32 33  1  0  0  0
 32 31  1  0  0  0
 20 21  1  0  0  0
 20  2  1  0  0  0
  1  2  2  0  0  0
  2  3  1  0  0  0
  3  4  1  0  0  0
  4  5  1  0  0  0
  5  6  1  0  0  0
  6  7  1  0  0  0
  7  8  1  0  0  0
  8  9  1  0  0  0
  9 10  1  0  0  0
 10 11  2  0  0  0
 11 12  1  0  0  0
 12 13  1  0  0  0
 13 14  1  0  0  0
 14 15  1  0  0  0
 15 16  1  0  0  0
 16 17  1  0  0  0
 17 18  1  0  0  0
 18 19  1  0  0  0
 23 24  1  0  0  0
 29 30  1  0  0  0
M  CHG 1  28  -1
M  END
> <minimizedAffinity>
-8.70271

> <CNNscore>
0.8511686325

> <CNNaffinity>
6.3923978806

> <CNN_VS>
5.4410085678

> <CNNaffinity_variance>
0.2719488442

$$$$



 37 36  0  0  0  0  0  0  0  0999 V2000
  -41.0608   60.8249   66.1444 O   0  0  0  0  0  0  0  0  0  0  0  0
  -40.6639   59.7348   65.8668 C   0  0  0  0  0  0  0  0  0  0  0  0
  -41.5331   58.6076   65.4139 C   0  0  0  0  0  0  0  0  0  0  0  0
  -42.4844   58.1249   66.4926 C   0  0  0  0  0  0  0  0  0  0  0  0
  -43.8921   57.9059   65.9817 C   0  0  0  0  0  0  0  0  0  0  0  0
  -44.4594   59.0633   65.1941 C   0  0  0  0  0  0  0  0  0  0  0  0
  -45.9300   59.2981   65.4279 C   0  0  0  0  0  0  0  0  0  0  0  0
  -46.7763   58.1419   64.9671 C   0  0  0  0  0  0  0  0  0  0  0  0
  -47.9791   57.8466   65.8134 C   0  0  0  0  0  0  0  0  0  0  0  0
  -48.8145   59.0284   66.0713 C   0  0  0  0  0  0  0  0  0  0  0  0
  -49.9654   59.3415   65.5181 C   0  0  0  0  0  0  0  0  0  0  0  0
  -50.7318   58.5720   64.5057 C   0  0  0  0  0  0  0  0  0  0  0  0
  -50.1836   58.6227   63.0942 C   0  0  0  0  0  0  0  0  0  0  0  0
  -51.2655   58.7100   62.0532 C   0  0  0  0  0  0  0  0  0  0  0  0
  -51.4025   57.4866   61.1835 C   0  0  0  0  0  0  0  0  0  0  0  0
  -50.3752   57.4439   60.0738 C   0  0  0  0  0  0  0  0  0  0  0  0
  -49.4057   56.2976   60.1520 C   0  0  0  0  0  0  0  0  0  0  0  0
  -48.0206   56.6838   59.8182 C   0  0  0  0  0  0  0  0  0  0  0  0
  -47.9382   57.7078   58.7786 C   0  0  0  0  0  0  0  0  0  0  0  0
  -39.3826   59.3730   65.9323 O   0  0  0  0  0  0  0  0  0  0  0  0
  -38.4970   59.8630   64.9010 C   0  0  0  0  0  0  0  0  0  0  0  0
  -38.0438   61.2415   65.3238 C   0  0  0  0  0  0  0  0  0  0  0  0
  -37.9564   61.2979   66.7477 O   0  0  0  0  0  0  0  0  0  0  0  0
  -37.2779   60.6765   67.0549 H   0  0  0  0  0  0  0  0  0  0  0  0
  -36.7202   61.6833   64.7482 C   0  0  0  0  0  0  0  0  0  0  0  0
  -36.8162   63.0776   64.3942 O   0  0  0  0  0  0  0  0  0  0  0  0
  -36.2104   64.1797   65.3676 P   0  0  0  0  0  0  0  0  0  0  0  0
  -36.1909   65.4535   64.6205 O   0  0  0  0  0  0  0  0  0  0  0  0
  -36.9697   64.0982   66.6308 O   0  0  0  0  0  0  0  0  0  0  0  0
  -37.8956   64.3370   66.4675 H   0  0  0  0  0  0  0  0  0  0  0  0
  -34.7104   63.7803   65.6955 O   0  0  0  0  0  0  0  0  0  0  0  0
  -33.6256   64.6033   65.2060 C   0  0  0  0  0  0  0  0  0  0  0  0
  -32.7124   63.6726   64.4409 C   0  0  0  0  0  0  0  0  0  0  0  0
  -32.3541   64.0966   63.0303 N   0  0  0  0  0  0  0  0  0  0  0  0
  -31.9217   65.5271   62.9910 C   0  0  0  0  0  0  0  0  0  0  0  0
  -33.5448   63.9328   62.1411 C   0  0  0  0  0  0  0  0  0  0  0  0
  -31.2353   63.2442   62.5196 C   0  0  0  0  0  0  0  0  0  0  0  0
 34 33  1  0  0  0
 34 35  1  0  0  0
 34 36  1  0  0  0
 34 37  1  0  0  0
 22 23  1  0  0  0
 22 25  1  0  0  0
 22 21  1  0  0  0
 27 26  1  0  0  0
 27 28  2  0  0  0
 27 31  1  0  0  0
 27 29  1  0  0  0
 25 26  1  0  0  0
 32 33  1  0  0  0
 32 31  1  0  0  0
 20 21  1  0  0  0
 20  2  1  0  0  0
  1  2  2  0  0  0
  2  3  1  0  0  0
  3  4  1  0  0  0
  4  5  1  0  0  0
  5  6  1  0  0  0
  6  7  1  0  0  0
  7  8  1  0  0  0
  8  9  1  0  0  0
  9 10  1  0  0  0
 10 11  2  0  0  0
 11 12  1  0  0  0
 12 13  1  0  0  0
 13 14  1  0  0  0
 14 15  1  0  0  0
 15 16  1  0  0  0
 16 17  1  0  0  0
 17 18  1  0  0  0
 18 19  1  0  0  0
 23 24  1  0  0  0
 29 30  1  0  0  0
M  CHG 1  28  -1
M  END
> <minimizedAffinity>
-8.37192

> <CNNscore>
0.8220452070

> <CNNaffinity>
6.3817229271

> <CNN_VS>
5.2460646629

> <CNNaffinity_variance>
0.3164649308

$$$$



 37 36  0  0  0  0  0  0  0  0999 V2000
  -41.3966   60.9616   65.1570 O   0  0  0  0  0  0  0  0  0  0  0  0
  -40.9078   59.8752   65.0954 C   0  0  0  0  0  0  0  0  0  0  0  0
  -41.5362   58.6326   65.6361 C   0  0  0  0  0  0  0  0  0  0  0  0
  -42.4300   58.8955   66.8334 C   0  0  0  0  0  0  0  0  0  0  0  0
  -43.8975   58.9627   66.4696 C   0  0  0  0  0  0  0  0  0  0  0  0
  -44.2376   58.3629   65.1256 C   0  0  0  0  0  0  0  0  0  0  0  0
  -45.4157   57.4230   65.1571 C   0  0  0  0  0  0  0  0  0  0  0  0
  -46.1451   57.4609   66.4732 C   0  0  0  0  0  0  0  0  0  0  0  0
  -47.6077   57.7836   66.3897 C   0  0  0  0  0  0  0  0  0  0  0  0
  -47.8801   59.1103   65.8182 C   0  0  0  0  0  0  0  0  0  0  0  0
  -48.4914   59.3946   64.6894 C   0  0  0  0  0  0  0  0  0  0  0  0
  -49.0858   58.4509   63.7094 C   0  0  0  0  0  0  0  0  0  0  0  0
  -50.0170   59.0707   62.6877 C   0  0  0  0  0  0  0  0  0  0  0  0
  -51.0503   58.1028   62.1802 C   0  0  0  0  0  0  0  0  0  0  0  0
  -50.9242   57.7564   60.7187 C   0  0  0  0  0  0  0  0  0  0  0  0
  -49.5131   57.9260   60.2004 C   0  0  0  0  0  0  0  0  0  0  0  0
  -49.1626   57.0597   59.0228 C   0  0  0  0  0  0  0  0  0  0  0  0
  -47.7157   56.7895   58.9101 C   0  0  0  0  0  0  0  0  0  0  0  0
  -47.0104   57.7494   58.0632 C   0  0  0  0  0  0  0  0  0  0  0  0
  -39.7228   59.6255   64.5384 O   0  0  0  0  0  0  0  0  0  0  0  0
  -38.9178   60.7592   64.1451 C   0  0  0  0  0  0  0  0  0  0  0  0
  -37.5510   60.2272   63.7801 C   0  0  0  0  0  0  0  0  0  0  0  0
  -37.5687   59.7531   62.4336 O   0  0  0  0  0  0  0  0  0  0  0  0
  -37.7478   60.4932   61.8326 H   0  0  0  0  0  0  0  0  0  0  0  0
  -36.4213   61.2183   63.9206 C   0  0  0  0  0  0  0  0  0  0  0  0
  -36.5142   62.1754   62.8463 O   0  0  0  0  0  0  0  0  0  0  0  0
  -35.7524   63.5665   62.9642 P   0  0  0  0  0  0  0  0  0  0  0  0
  -35.3933   63.9809   61.5929 O   0  0  0  0  0  0  0  0  0  0  0  0
  -36.6032   64.4517   63.7836 O   0  0  0  0  0  0  0  0  0  0  0  0
  -37.4376   64.6197   63.3182 H   0  0  0  0  0  0  0  0  0  0  0  0
  -34.4082   63.3281   63.7725 O   0  0  0  0  0  0  0  0  0  0  0  0
  -33.2615   62.7524   63.1037 C   0  0  0  0  0  0  0  0  0  0  0  0
  -32.6923   63.8525   62.2370 C   0  0  0  0  0  0  0  0  0  0  0  0
  -31.5772   64.6772   62.8487 N   0  0  0  0  0  0  0  0  0  0  0  0
  -32.0982   65.9678   63.3942 C   0  0  0  0  0  0  0  0  0  0  0  0
  -30.5490   64.9795   61.8062 C   0  0  0  0  0  0  0  0  0  0  0  0
  -30.9393   63.9092   63.9635 C   0  0  0  0  0  0  0  0  0  0  0  0
 34 33  1  0  0  0
 34 35  1  0  0  0
 34 36  1  0  0  0
 34 37  1  0  0  0
 22 23  1  0  0  0
 22 25  1  0  0  0
 22 21  1  0  0  0
 27 26  1  0  0  0
 27 28  2  0  0  0
 27 31  1  0  0  0
 27 29  1  0  0  0
 25 26  1  0  0  0
 32 33  1  0  0  0
 32 31  1  0  0  0
 20 21  1  0  0  0
 20  2  1  0  0  0
  1  2  2  0  0  0
  2  3  1  0  0  0
  3  4  1  0  0  0
  4  5  1  0  0  0
  5  6  1  0  0  0
  6  7  1  0  0  0
  7  8  1  0  0  0
  8  9  1  0  0  0
  9 10  1  0  0  0
 10 11  2  0  0  0
 11 12  1  0  0  0
 12 13  1  0  0  0
 13 14  1  0  0  0
 14 15  1  0  0  0
 15 16  1  0  0  0
 16 17  1  0  0  0
 17 18  1  0  0  0
 18 19  1  0  0  0
 23 24  1  0  0  0
 29 30  1  0  0  0
M  CHG 1  28  -1
M  END
> <minimizedAffinity>
-7.75942

> <CNNscore>
0.8213064671

> <CNNaffinity>
6.2791180611

> <CNN_VS>
5.1570801735

> <CNNaffinity_variance>
0.5345844030

$$$$



 37 36  0  0  0  0  0  0  0  0999 V2000
  -42.6724   59.7027   67.5736 O   0  0  0  0  0  0  0  0  0  0  0  0
  -42.0757   59.2093   66.6661 C   0  0  0  0  0  0  0  0  0  0  0  0
  -42.3445   57.8460   66.1181 C   0  0  0  0  0  0  0  0  0  0  0  0
  -43.6643   57.2680   66.5931 C   0  0  0  0  0  0  0  0  0  0  0  0
  -44.6497   57.0455   65.4661 C   0  0  0  0  0  0  0  0  0  0  0  0
  -45.1138   58.3095   64.7814 C   0  0  0  0  0  0  0  0  0  0  0  0
  -45.8278   59.2720   65.6957 C   0  0  0  0  0  0  0  0  0  0  0  0
  -47.2256   59.5776   65.2286 C   0  0  0  0  0  0  0  0  0  0  0  0
  -48.0212   58.3951   64.7605 C   0  0  0  0  0  0  0  0  0  0  0  0
  -49.2359   58.1589   65.5540 C   0  0  0  0  0  0  0  0  0  0  0  0
  -50.4663   58.5326   65.2800 C   0  0  0  0  0  0  0  0  0  0  0  0
  -50.9527   59.2706   64.0870 C   0  0  0  0  0  0  0  0  0  0  0  0
  -51.1321   58.4394   62.8331 C   0  0  0  0  0  0  0  0  0  0  0  0
  -50.2048   58.8534   61.7237 C   0  0  0  0  0  0  0  0  0  0  0  0
  -49.3525   57.7414   61.1678 C   0  0  0  0  0  0  0  0  0  0  0  0
  -48.9473   57.9823   59.7303 C   0  0  0  0  0  0  0  0  0  0  0  0
  -47.8060   57.1337   59.2433 C   0  0  0  0  0  0  0  0  0  0  0  0
  -47.0969   57.7200   58.0889 C   0  0  0  0  0  0  0  0  0  0  0  0
  -47.1014   56.8597   56.9073 C   0  0  0  0  0  0  0  0  0  0  0  0
  -41.0764   59.8110   66.0210 O   0  0  0  0  0  0  0  0  0  0  0  0
  -40.2617   58.9992   65.1463 C   0  0  0  0  0  0  0  0  0  0  0  0
  -39.0907   59.8513   64.7136 C   0  0  0  0  0  0  0  0  0  0  0  0
  -39.5457   61.1726   64.4216 O   0  0  0  0  0  0  0  0  0  0  0  0
  -39.9007   61.5779   65.2281 H   0  0  0  0  0  0  0  0  0  0  0  0
  -37.9652   59.9462   65.7149 C   0  0  0  0  0  0  0  0  0  0  0  0
  -38.0181   61.2429   66.3431 O   0  0  0  0  0  0  0  0  0  0  0  0
  -36.7280   62.1729   66.3370 P   0  0  0  0  0  0  0  0  0  0  0  0
  -37.0829   63.4005   65.5967 O   0  0  0  0  0  0  0  0  0  0  0  0
  -36.2739   62.2832   67.7372 O   0  0  0  0  0  0  0  0  0  0  0  0
  -36.9521   62.7363   68.2623 H   0  0  0  0  0  0  0  0  0  0  0  0
  -35.5835   61.4270   65.5302 O   0  0  0  0  0  0  0  0  0  0  0  0
  -35.5420   61.5259   64.0872 C   0  0  0  0  0  0  0  0  0  0  0  0
  -34.2055   62.1487   63.7533 C   0  0  0  0  0  0  0  0  0  0  0  0
  -34.2430   63.5660   63.2169 N   0  0  0  0  0  0  0  0  0  0  0  0
  -35.5502   63.8563   62.5522 C   0  0  0  0  0  0  0  0  0  0  0  0
  -33.1470   63.7514   62.2170 C   0  0  0  0  0  0  0  0  0  0  0  0
  -34.0532   64.5333   64.3427 C   0  0  0  0  0  0  0  0  0  0  0  0
 34 33  1  0  0  0
 34 35  1  0  0  0
 34 36  1  0  0  0
 34 37  1  0  0  0
 22 23  1  0  0  0
 22 25  1  0  0  0
 22 21  1  0  0  0
 27 26  1  0  0  0
 27 28  2  0  0  0
 27 31  1  0  0  0
 27 29  1  0  0  0
 25 26  1  0  0  0
 32 33  1  0  0  0
 32 31  1  0  0  0
 20 21  1  0  0  0
 20  2  1  0  0  0
  1  2  2  0  0  0
  2  3  1  0  0  0
  3  4  1  0  0  0
  4  5  1  0  0  0
  5  6  1  0  0  0
  6  7  1  0  0  0
  7  8  1  0  0  0
  8  9  1  0  0  0
  9 10  1  0  0  0
 10 11  2  0  0  0
 11 12  1  0  0  0
 12 13  1  0  0  0
 13 14  1  0  0  0
 14 15  1  0  0  0
 15 16  1  0  0  0
 16 17  1  0  0  0
 17 18  1  0  0  0
 18 19  1  0  0  0
 23 24  1  0  0  0
 29 30  1  0  0  0
M  CHG 1  28  -1
M  END
> <minimizedAffinity>
-8.31733

> <CNNscore>
0.8184079528

> <CNNaffinity>
6.5541887283

> <CNN_VS>
5.3640003204

> <CNNaffinity_variance>
0.1404894292

$$$$



 37 36  0  0  0  0  0  0  0  0999 V2000
  -41.1389   60.7975   66.0103 O   0  0  0  0  0  0  0  0  0  0  0  0
  -41.5072   59.6659   65.9284 C   0  0  0  0  0  0  0  0  0  0  0  0
  -42.5985   59.0691   66.7555 C   0  0  0  0  0  0  0  0  0  0  0  0
  -43.7351   58.5108   65.9201 C   0  0  0  0  0  0  0  0  0  0  0  0
  -44.6458   59.5870   65.3700 C   0  0  0  0  0  0  0  0  0  0  0  0
  -46.1016   59.1926   65.2859 C   0  0  0  0  0  0  0  0  0  0  0  0
  -46.6558   58.6273   66.5688 C   0  0  0  0  0  0  0  0  0  0  0  0
  -47.6579   57.5307   66.3271 C   0  0  0  0  0  0  0  0  0  0  0  0
  -48.6342   57.7837   65.2167 C   0  0  0  0  0  0  0  0  0  0  0  0
  -49.9419   58.2621   65.6881 C   0  0  0  0  0  0  0  0  0  0  0  0
  -50.5914   59.3419   65.3128 C   0  0  0  0  0  0  0  0  0  0  0  0
  -50.1839   60.3469   64.2987 C   0  0  0  0  0  0  0  0  0  0  0  0
  -50.0860   59.8363   62.8757 C   0  0  0  0  0  0  0  0  0  0  0  0
  -51.3895   59.2876   62.3640 C   0  0  0  0  0  0  0  0  0  0  0  0
  -51.3101   57.8867   61.8135 C   0  0  0  0  0  0  0  0  0  0  0  0
  -49.8982   57.4845   61.4486 C   0  0  0  0  0  0  0  0  0  0  0  0
  -49.7719   56.7081   60.1675 C   0  0  0  0  0  0  0  0  0  0  0  0
  -48.3729   56.5276   59.7325 C   0  0  0  0  0  0  0  0  0  0  0  0
  -47.8802   57.6194   58.8950 C   0  0  0  0  0  0  0  0  0  0  0  0
  -40.9839   58.7746   65.0865 O   0  0  0  0  0  0  0  0  0  0  0  0
  -40.4333   59.2710   63.8462 C   0  0  0  0  0  0  0  0  0  0  0  0
  -39.0555   58.6672   63.6996 C   0  0  0  0  0  0  0  0  0  0  0  0
  -38.9155   57.5746   64.6077 O   0  0  0  0  0  0  0  0  0  0  0  0
  -39.5496   56.8781   64.3758 H   0  0  0  0  0  0  0  0  0  0  0  0
  -38.7163   58.1790   62.3121 C   0  0  0  0  0  0  0  0  0  0  0  0
  -39.5582   58.8669   61.3651 O   0  0  0  0  0  0  0  0  0  0  0  0
  -38.8954   59.6925   60.1783 P   0  0  0  0  0  0  0  0  0  0  0  0
  -39.9124   60.6483   59.6952 O   0  0  0  0  0  0  0  0  0  0  0  0
  -37.6071   60.2070   60.6829 O   0  0  0  0  0  0  0  0  0  0  0  0
  -37.7695   60.8286   61.4096 H   0  0  0  0  0  0  0  0  0  0  0  0
  -38.5680   58.6856   58.9968 O   0  0  0  0  0  0  0  0  0  0  0  0
  -37.1932   58.3330   58.7152 C   0  0  0  0  0  0  0  0  0  0  0  0
  -37.0292   56.9033   59.1785 C   0  0  0  0  0  0  0  0  0  0  0  0
  -35.6276   56.4853   59.5764 N   0  0  0  0  0  0  0  0  0  0  0  0
  -34.6252   56.9210   58.5565 C   0  0  0  0  0  0  0  0  0  0  0  0
  -35.5660   54.9966   59.7011 C   0  0  0  0  0  0  0  0  0  0  0  0
  -35.2735   57.1060   60.8912 C   0  0  0  0  0  0  0  0  0  0  0  0
 34 33  1  0  0  0
 34 35  1  0  0  0
 34 36  1  0  0  0
 34 37  1  0  0  0
 22 23  1  0  0  0
 22 25  1  0  0  0
 22 21  1  0  0  0
 27 26  1  0  0  0
 27 28  2  0  0  0
 27 31  1  0  0  0
 27 29  1  0  0  0
 25 26  1  0  0  0
 32 33  1  0  0  0
 32 31  1  0  0  0
 20 21  1  0  0  0
 20  2  1  0  0  0
  1  2  2  0  0  0
  2  3  1  0  0  0
  3  4  1  0  0  0
  4  5  1  0  0  0
  5  6  1  0  0  0
  6  7  1  0  0  0
  7  8  1  0  0  0
  8  9  1  0  0  0
  9 10  1  0  0  0
 10 11  2  0  0  0
 11 12  1  0  0  0
 12 13  1  0  0  0
 13 14  1  0  0  0
 14 15  1  0  0  0
 15 16  1  0  0  0
 16 17  1  0  0  0
 17 18  1  0  0  0
 18 19  1  0  0  0
 23 24  1  0  0  0
 29 30  1  0  0  0
M  CHG 1  28  -1
M  END
> <minimizedAffinity>
-8.41369

> <CNNscore>
0.7569210529

> <CNNaffinity>
6.6569252014

> <CNN_VS>
5.0387668610

> <CNNaffinity_variance>
0.2024022043

$$$$



 37 36  0  0  0  0  0  0  0  0999 V2000
  -36.2690   60.7229   63.2147 O   0  0  0  0  0  0  0  0  0  0  0  0
  -35.6076   60.2737   64.1000 C   0  0  0  0  0  0  0  0  0  0  0  0
  -34.6738   59.1168   63.9557 C   0  0  0  0  0  0  0  0  0  0  0  0
  -35.3463   57.8823   63.3855 C   0  0  0  0  0  0  0  0  0  0  0  0
  -35.0907   57.7030   61.9046 C   0  0  0  0  0  0  0  0  0  0  0  0
  -34.2998   56.4655   61.5511 C   0  0  0  0  0  0  0  0  0  0  0  0
  -34.8468   55.7089   60.3677 C   0  0  0  0  0  0  0  0  0  0  0  0
  -36.3176   55.9525   60.1606 C   0  0  0  0  0  0  0  0  0  0  0  0
  -36.7171   56.3340   58.7660 C   0  0  0  0  0  0  0  0  0  0  0  0
  -36.6500   57.7811   58.5157 C   0  0  0  0  0  0  0  0  0  0  0  0
  -37.4741   58.7141   58.9389 C   0  0  0  0  0  0  0  0  0  0  0  0
  -38.6739   58.5520   59.7983 C   0  0  0  0  0  0  0  0  0  0  0  0
  -38.4781   58.8861   61.2630 C   0  0  0  0  0  0  0  0  0  0  0  0
  -38.7491   57.7155   62.1676 C   0  0  0  0  0  0  0  0  0  0  0  0
  -39.1520   58.0853   63.5722 C   0  0  0  0  0  0  0  0  0  0  0  0
  -39.7922   59.4537   63.6524 C   0  0  0  0  0  0  0  0  0  0  0  0
  -41.0307   59.5246   64.5014 C   0  0  0  0  0  0  0  0  0  0  0  0
  -41.1633   58.3868   65.4326 C   0  0  0  0  0  0  0  0  0  0  0  0
  -42.0624   58.6558   66.5531 C   0  0  0  0  0  0  0  0  0  0  0  0
  -35.6204   60.7435   65.3474 O   0  0  0  0  0  0  0  0  0  0  0  0
  -36.7958   61.4664   65.7764 C   0  0  0  0  0  0  0  0  0  0  0  0
  -36.3169   62.6599   66.5706 C   0  0  0  0  0  0  0  0  0  0  0  0
  -36.4294   62.3793   67.9659 O   0  0  0  0  0  0  0  0  0  0  0  0
  -35.8441   61.6405   68.1953 H   0  0  0  0  0  0  0  0  0  0  0  0
  -34.8986   63.0900   66.2847 C   0  0  0  0  0  0  0  0  0  0  0  0
  -34.9185   64.4524   65.8133 O   0  0  0  0  0  0  0  0  0  0  0  0
  -34.9633   64.7433   64.2504 P   0  0  0  0  0  0  0  0  0  0  0  0
  -36.3863   64.8577   63.8721 O   0  0  0  0  0  0  0  0  0  0  0  0
  -34.0590   65.8831   64.0016 O   0  0  0  0  0  0  0  0  0  0  0  0
  -34.4017   66.6718   64.4504 H   0  0  0  0  0  0  0  0  0  0  0  0
  -34.3543   63.4879   63.4953 O   0  0  0  0  0  0  0  0  0  0  0  0
  -33.6619   63.6734   62.2384 C   0  0  0  0  0  0  0  0  0  0  0  0
  -32.4439   62.7800   62.3010 C   0  0  0  0  0  0  0  0  0  0  0  0
  -31.1412   63.4508   62.6895 N   0  0  0  0  0  0  0  0  0  0  0  0
  -29.9687   62.7292   62.1069 C   0  0  0  0  0  0  0  0  0  0  0  0
  -31.0065   63.4571   64.1785 C   0  0  0  0  0  0  0  0  0  0  0  0
  -31.1337   64.8603   62.1869 C   0  0  0  0  0  0  0  0  0  0  0  0
 34 33  1  0  0  0
 34 35  1  0  0  0
 34 36  1  0  0  0
 34 37  1  0  0  0
 22 23  1  0  0  0
 22 25  1  0  0  0
 22 21  1  0  0  0
 27 26  1  0  0  0
 27 28  2  0  0  0
 27 31  1  0  0  0
 27 29  1  0  0  0
 25 26  1  0  0  0
 32 33  1  0  0  0
 32 31  1  0  0  0
 20 21  1  0  0  0
 20  2  1  0  0  0
  1  2  2  0  0  0
  2  3  1  0  0  0
  3  4  1  0  0  0
  4  5  1  0  0  0
  5  6  1  0  0  0
  6  7  1  0  0  0
  7  8  1  0  0  0
  8  9  1  0  0  0
  9 10  1  0  0  0
 10 11  2  0  0  0
 11 12  1  0  0  0
 12 13  1  0  0  0
 13 14  1  0  0  0
 14 15  1  0  0  0
 15 16  1  0  0  0
 16 17  1  0  0  0
 17 18  1  0  0  0
 18 19  1  0  0  0
 23 24  1  0  0  0
 29 30  1  0  0  0
M  CHG 1  28  -1
M  END
> <minimizedAffinity>
-7.41123

> <CNNscore>
0.7441667318

> <CNNaffinity>
6.8153791428

> <CNN_VS>
5.0717782974

> <CNNaffinity_variance>
0.2784650922

$$$$



 37 36  0  0  0  0  0  0  0  0999 V2000
  -42.8245   57.3427   66.3409 O   0  0  0  0  0  0  0  0  0  0  0  0
  -42.4870   58.2638   65.6622 C   0  0  0  0  0  0  0  0  0  0  0  0
  -43.4199   59.2816   65.0922 C   0  0  0  0  0  0  0  0  0  0  0  0
  -44.8384   58.7650   64.9430 C   0  0  0  0  0  0  0  0  0  0  0  0
  -45.8456   59.5719   65.7334 C   0  0  0  0  0  0  0  0  0  0  0  0
  -46.9813   58.7616   66.3125 C   0  0  0  0  0  0  0  0  0  0  0  0
  -48.3474   59.2290   65.8796 C   0  0  0  0  0  0  0  0  0  0  0  0
  -49.3473   58.1055   65.8232 C   0  0  0  0  0  0  0  0  0  0  0  0
  -50.7252   58.4916   65.3729 C   0  0  0  0  0  0  0  0  0  0  0  0
  -50.7312   59.5736   64.3777 C   0  0  0  0  0  0  0  0  0  0  0  0
  -50.8850   59.4740   63.0758 C   0  0  0  0  0  0  0  0  0  0  0  0
  -51.1152   58.2456   62.2743 C   0  0  0  0  0  0  0  0  0  0  0  0
  -49.8801   57.6370   61.6423 C   0  0  0  0  0  0  0  0  0  0  0  0
  -50.1737   56.9495   60.3372 C   0  0  0  0  0  0  0  0  0  0  0  0
  -49.4765   57.5455   59.1411 C   0  0  0  0  0  0  0  0  0  0  0  0
  -47.9696   57.4599   59.2438 C   0  0  0  0  0  0  0  0  0  0  0  0
  -47.2384   57.5692   57.9349 C   0  0  0  0  0  0  0  0  0  0  0  0
  -47.7245   56.6180   56.9161 C   0  0  0  0  0  0  0  0  0  0  0  0
  -47.4489   55.2215   57.2478 C   0  0  0  0  0  0  0  0  0  0  0  0
  -41.2232   58.5041   65.3131 O   0  0  0  0  0  0  0  0  0  0  0  0
  -40.7006   59.8272   65.5665 C   0  0  0  0  0  0  0  0  0  0  0  0
  -40.1381   60.3394   64.2605 C   0  0  0  0  0  0  0  0  0  0  0  0
  -38.9157   61.0339   64.5084 O   0  0  0  0  0  0  0  0  0  0  0  0
  -38.2605   60.4163   64.8693 H   0  0  0  0  0  0  0  0  0  0  0  0
  -39.8801   59.2798   63.2168 C   0  0  0  0  0  0  0  0  0  0  0  0
  -40.0733   59.8636   61.9127 O   0  0  0  0  0  0  0  0  0  0  0  0
  -39.0452   59.5361   60.7443 P   0  0  0  0  0  0  0  0  0  0  0  0
  -39.7906   59.6303   59.4728 O   0  0  0  0  0  0  0  0  0  0  0  0
  -37.8690   60.4028   60.9545 O   0  0  0  0  0  0  0  0  0  0  0  0
  -38.1300   61.3318   60.8553 H   0  0  0  0  0  0  0  0  0  0  0  0
  -38.5594   58.0358   60.9182 O   0  0  0  0  0  0  0  0  0  0  0  0
  -37.1442   57.7449   60.9984 C   0  0  0  0  0  0  0  0  0  0  0  0
  -36.8175   56.9351   59.7643 C   0  0  0  0  0  0  0  0  0  0  0  0
  -35.4859   56.2108   59.7722 N   0  0  0  0  0  0  0  0  0  0  0  0
  -34.6372   56.6303   58.6153 C   0  0  0  0  0  0  0  0  0  0  0  0
  -35.7180   54.7364   59.6847 C   0  0  0  0  0  0  0  0  0  0  0  0
  -34.7540   56.5212   61.0401 C   0  0  0  0  0  0  0  0  0  0  0  0
 34 33  1  0  0  0
 34 35  1  0  0  0
 34 36  1  0  0  0
 34 37  1  0  0  0
 22 23  1  0  0  0
 22 25  1  0  0  0
 22 21  1  0  0  0
 27 26  1  0  0  0
 27 28  2  0  0  0
 27 31  1  0  0  0
 27 29  1  0  0  0
 25 26  1  0  0  0
 32 33  1  0  0  0
 32 31  1  0  0  0
 20 21  1  0  0  0
 20  2  1  0  0  0
  1  2  2  0  0  0
  2  3  1  0  0  0
  3  4  1  0  0  0
  4  5  1  0  0  0
  5  6  1  0  0  0
  6  7  1  0  0  0
  7  8  1  0  0  0
  8  9  1  0  0  0
  9 10  1  0  0  0
 10 11  2  0  0  0
 11 12  1  0  0  0
 12 13  1  0  0  0
 13 14  1  0  0  0
 14 15  1  0  0  0
 15 16  1  0  0  0
 16 17  1  0  0  0
 17 18  1  0  0  0
 18 19  1  0  0  0
 23 24  1  0  0  0
 29 30  1  0  0  0
M  CHG 1  28  -1
M  END
> <minimizedAffinity>
-8.65661

> <CNNscore>
0.7322242260

> <CNNaffinity>
6.6924352646

> <CNN_VS>
4.9003634453

> <CNNaffinity_variance>
0.4844988286

$$$$



 37 36  0  0  0  0  0  0  0  0999 V2000
  -40.1173   58.2572   65.2060 O   0  0  0  0  0  0  0  0  0  0  0  0
  -40.5701   59.2309   65.7256 C   0  0  0  0  0  0  0  0  0  0  0  0
  -41.9650   59.3400   66.2484 C   0  0  0  0  0  0  0  0  0  0  0  0
  -42.9961   59.5131   65.1491 C   0  0  0  0  0  0  0  0  0  0  0  0
  -44.4086   59.2374   65.6174 C   0  0  0  0  0  0  0  0  0  0  0  0
  -45.2115   58.3492   64.6963 C   0  0  0  0  0  0  0  0  0  0  0  0
  -46.6991   58.4121   64.9316 C   0  0  0  0  0  0  0  0  0  0  0  0
  -47.0957   59.5840   65.7888 C   0  0  0  0  0  0  0  0  0  0  0  0
  -48.4525   60.1583   65.5068 C   0  0  0  0  0  0  0  0  0  0  0  0
  -49.5497   59.2140   65.7626 C   0  0  0  0  0  0  0  0  0  0  0  0
  -50.6235   59.0051   65.0333 C   0  0  0  0  0  0  0  0  0  0  0  0
  -50.9964   59.6521   63.7501 C   0  0  0  0  0  0  0  0  0  0  0  0
  -51.4009   58.7083   62.6361 C   0  0  0  0  0  0  0  0  0  0  0  0
  -50.2193   58.1029   61.9294 C   0  0  0  0  0  0  0  0  0  0  0  0
  -50.5689   57.2436   60.7414 C   0  0  0  0  0  0  0  0  0  0  0  0
  -50.0994   57.8409   59.4332 C   0  0  0  0  0  0  0  0  0  0  0  0
  -49.0501   57.0415   58.7124 C   0  0  0  0  0  0  0  0  0  0  0  0
  -47.6961   57.6174   58.8321 C   0  0  0  0  0  0  0  0  0  0  0  0
  -46.9069   57.5040   57.6072 C   0  0  0  0  0  0  0  0  0  0  0  0
  -39.8880   60.3624   65.9025 O   0  0  0  0  0  0  0  0  0  0  0  0
  -38.4708   60.2538   66.1630 C   0  0  0  0  0  0  0  0  0  0  0  0
  -37.7735   61.2176   65.2308 C   0  0  0  0  0  0  0  0  0  0  0  0
  -37.4149   62.3987   65.9482 O   0  0  0  0  0  0  0  0  0  0  0  0
  -36.7764   62.1737   66.6429 H   0  0  0  0  0  0  0  0  0  0  0  0
  -36.5353   60.6744   64.5597 C   0  0  0  0  0  0  0  0  0  0  0  0
  -36.8287   60.4527   63.1656 O   0  0  0  0  0  0  0  0  0  0  0  0
  -37.3799   59.0376   62.6933 P   0  0  0  0  0  0  0  0  0  0  0  0
  -36.8184   58.0260   63.6113 O   0  0  0  0  0  0  0  0  0  0  0  0
  -38.8456   59.1674   62.5756 O   0  0  0  0  0  0  0  0  0  0  0  0
  -39.2256   59.3464   63.4500 H   0  0  0  0  0  0  0  0  0  0  0  0
  -36.8165   58.7468   61.2390 O   0  0  0  0  0  0  0  0  0  0  0  0
  -37.6296   58.0221   60.2865 C   0  0  0  0  0  0  0  0  0  0  0  0
  -36.7676   57.8438   59.0573 C   0  0  0  0  0  0  0  0  0  0  0  0
  -36.0518   56.5138   58.9290 N   0  0  0  0  0  0  0  0  0  0  0  0
  -36.0834   55.7582   60.2185 C   0  0  0  0  0  0  0  0  0  0  0  0
  -34.6253   56.7483   58.5475 C   0  0  0  0  0  0  0  0  0  0  0  0
  -36.7159   55.6869   57.8733 C   0  0  0  0  0  0  0  0  0  0  0  0
 34 33  1  0  0  0
 34 35  1  0  0  0
 34 36  1  0  0  0
 34 37  1  0  0  0
 22 23  1  0  0  0
 22 25  1  0  0  0
 22 21  1  0  0  0
 27 26  1  0  0  0
 27 28  2  0  0  0
 27 31  1  0  0  0
 27 29  1  0  0  0
 25 26  1  0  0  0
 32 33  1  0  0  0
 32 31  1  0  0  0
 20 21  1  0  0  0
 20  2  1  0  0  0
  1  2  2  0  0  0
  2  3  1  0  0  0
  3  4  1  0  0  0
  4  5  1  0  0  0
  5  6  1  0  0  0
  6  7  1  0  0  0
  7  8  1  0  0  0
  8  9  1  0  0  0
  9 10  1  0  0  0
 10 11  2  0  0  0
 11 12  1  0  0  0
 12 13  1  0  0  0
 13 14  1  0  0  0
 14 15  1  0  0  0
 15 16  1  0  0  0
 16 17  1  0  0  0
 17 18  1  0  0  0
 18 19  1  0  0  0
 23 24  1  0  0  0
 29 30  1  0  0  0
M  CHG 1  28  -1
M  END
> <minimizedAffinity>
-8.19657

> <CNNscore>
0.7091040611

> <CNNaffinity>
6.5704216957

> <CNN_VS>
4.6591129303

> <CNNaffinity_variance>
0.4610880017

$$$$
