


 37 36  0  0  0  0  0  0  0  0999 V2000
  -44.4470   60.2783   65.1235 O   0  0  0  0  0  0  0  0  0  0  0  0
  -43.4710   59.5970   65.2027 C   0  0  0  0  0  0  0  0  0  0  0  0
  -43.4848   58.1250   65.4558 C   0  0  0  0  0  0  0  0  0  0  0  0
  -44.6571   57.4231   64.7967 C   0  0  0  0  0  0  0  0  0  0  0  0
  -45.6812   56.9244   65.7931 C   0  0  0  0  0  0  0  0  0  0  0  0
  -46.7990   57.8983   66.0827 C   0  0  0  0  0  0  0  0  0  0  0  0
  -47.5323   58.3691   64.8527 C   0  0  0  0  0  0  0  0  0  0  0  0
  -48.8547   57.6734   64.6714 C   0  0  0  0  0  0  0  0  0  0  0  0
  -50.0317   58.3517   65.3075 C   0  0  0  0  0  0  0  0  0  0  0  0
  -50.1341   59.7789   64.9704 C   0  0  0  0  0  0  0  0  0  0  0  0
  -50.6738   60.3206   63.9008 C   0  0  0  0  0  0  0  0  0  0  0  0
  -51.3403   59.6333   62.7660 C   0  0  0  0  0  0  0  0  0  0  0  0
  -50.4175   59.1253   61.6771 C   0  0  0  0  0  0  0  0  0  0  0  0
  -50.5531   57.6457   61.4437 C   0  0  0  0  0  0  0  0  0  0  0  0
  -50.2758   57.2034   60.0297 C   0  0  0  0  0  0  0  0  0  0  0  0
  -49.0175   56.3712   59.9168 C   0  0  0  0  0  0  0  0  0  0  0  0
  -48.1471   56.6964   58.7351 C   0  0  0  0  0  0  0  0  0  0  0  0
  -47.6030   55.4980   58.0665 C   0  0  0  0  0  0  0  0  0  0  0  0
  -47.0436   55.7746   56.7448 C   0  0  0  0  0  0  0  0  0  0  0  0
  -42.2284   60.0645   65.0830 O   0  0  0  0  0  0  0  0  0  0  0  0
  -41.9217   60.8529   63.9115 C   0  0  0  0  0  0  0  0  0  0  0  0
  -40.7149   61.6979   64.2492 C   0  0  0  0  0  0  0  0  0  0  0  0
  -40.8055   62.1370   65.6046 O   0  0  0  0  0  0  0  0  0  0  0  0
  -40.7802   61.3685   66.1959 H   0  0  0  0  0  0  0  0  0  0  0  0
  -39.3828   61.0139   64.0588 C   0  0  0  0  0  0  0  0  0  0  0  0
  -39.5051   60.0625   62.9825 O   0  0  0  0  0  0  0  0  0  0  0  0
  -38.8042   60.3601   61.5862 P   0  0  0  0  0  0  0  0  0  0  0  0
  -39.8769   60.6818   60.6233 O   0  0  0  0  0  0  0  0  0  0  0  0
  -37.7457   61.3563   61.8431 O   0  0  0  0  0  0  0  0  0  0  0  0
  -38.1484   62.1856   62.1449 H   0  0  0  0  0  0  0  0  0  0  0  0
  -38.0889   59.0310   61.0978 O   0  0  0  0  0  0  0  0  0  0  0  0
  -37.7389   58.0093   62.0608 C   0  0  0  0  0  0  0  0  0  0  0  0
  -36.3244   58.3180   62.4963 C   0  0  0  0  0  0  0  0  0  0  0  0
  -36.0933   58.4288   63.9903 N   0  0  0  0  0  0  0  0  0  0  0  0
  -34.9162   57.6112   64.4156 C   0  0  0  0  0  0  0  0  0  0  0  0
  -37.3029   57.9411   64.7212 C   0  0  0  0  0  0  0  0  0  0  0  0
  -35.8395   59.8581   64.3537 C   0  0  0  0  0  0  0  0  0  0  0  0
 34 33  1  0  0  0
 34 35  1  0  0  0
 34 36  1  0  0  0
 34 37  1  0  0  0
 22 23  1  0  0  0
 22 25  1  0  0  0
 22 21  1  0  0  0
 27 26  1  0  0  0
 27 28  2  0  0  0
 27 31  1  0  0  0
 27 29  1  0  0  0
 25 26  1  0  0  0
 32 33  1  0  0  0
 32 31  1  0  0  0
 20 21  1  0  0  0
 20  2  1  0  0  0
  1  2  2  0  0  0
  2  3  1  0  0  0
  3  4  1  0  0  0
  4  5  1  0  0  0
  5  6  1  0  0  0
  6  7  1  0  0  0
  7  8  1  0  0  0
  8  9  1  0  0  0
  9 10  1  0  0  0
 10 11  2  0  0  0
 11 12  1  0  0  0
 12 13  1  0  0  0
 13 14  1  0  0  0
 14 15  1  0  0  0
 15 16  1  0  0  0
 16 17  1  0  0  0
 17 18  1  0  0  0
 18 19  1  0  0  0
 23 24  1  0  0  0
 29 30  1  0  0  0
M  CHG 1  28  -1
M  END
> <minimizedAffinity>
-8.37228

> <CNNscore>
0.8724765182

> <CNNaffinity>
6.9988684654

> <CNN_VS>
6.1063485146

> <CNNaffinity_variance>
0.2863293290

$$$$



 37 36  0  0  0  0  0  0  0  0999 V2000
  -43.6361   59.7630   65.0306 O   0  0  0  0  0  0  0  0  0  0  0  0
  -43.0096   58.8531   65.4805 C   0  0  0  0  0  0  0  0  0  0  0  0
  -43.5505   57.4774   65.6954 C   0  0  0  0  0  0  0  0  0  0  0  0
  -44.7176   57.1522   64.7823 C   0  0  0  0  0  0  0  0  0  0  0  0
  -46.0606   57.3273   65.4577 C   0  0  0  0  0  0  0  0  0  0  0  0
  -46.9937   58.2862   64.7566 C   0  0  0  0  0  0  0  0  0  0  0  0
  -48.4337   58.1586   65.1837 C   0  0  0  0  0  0  0  0  0  0  0  0
  -49.1124   59.4950   65.3207 C   0  0  0  0  0  0  0  0  0  0  0  0
  -50.5812   59.5056   65.0163 C   0  0  0  0  0  0  0  0  0  0  0  0
  -50.8975   60.0531   63.6892 C   0  0  0  0  0  0  0  0  0  0  0  0
  -50.8915   59.4264   62.5334 C   0  0  0  0  0  0  0  0  0  0  0  0
  -50.5860   57.9975   62.2705 C   0  0  0  0  0  0  0  0  0  0  0  0
  -50.9263   57.5019   60.8798 C   0  0  0  0  0  0  0  0  0  0  0  0
  -49.9205   56.5163   60.3517 C   0  0  0  0  0  0  0  0  0  0  0  0
  -48.7829   57.1314   59.5774 C   0  0  0  0  0  0  0  0  0  0  0  0
  -47.7271   56.1189   59.1920 C   0  0  0  0  0  0  0  0  0  0  0  0
  -46.7495   56.5883   58.1510 C   0  0  0  0  0  0  0  0  0  0  0  0
  -46.8929   55.8864   56.8603 C   0  0  0  0  0  0  0  0  0  0  0  0
  -48.0285   56.3547   56.0682 C   0  0  0  0  0  0  0  0  0  0  0  0
  -41.7357   58.9463   65.8618 O   0  0  0  0  0  0  0  0  0  0  0  0
  -41.2342   60.2588   66.1994 C   0  0  0  0  0  0  0  0  0  0  0  0
  -40.2303   60.6373   65.1349 C   0  0  0  0  0  0  0  0  0  0  0  0
  -40.5944   61.8933   64.5622 O   0  0  0  0  0  0  0  0  0  0  0  0
  -40.5509   62.5835   65.2424 H   0  0  0  0  0  0  0  0  0  0  0  0
  -38.8000   60.7273   65.6088 C   0  0  0  0  0  0  0  0  0  0  0  0
  -38.2196   61.9402   65.0884 O   0  0  0  0  0  0  0  0  0  0  0  0
  -36.6390   62.1160   65.0820 P   0  0  0  0  0  0  0  0  0  0  0  0
  -36.2843   62.7976   63.8207 O   0  0  0  0  0  0  0  0  0  0  0  0
  -36.2736   62.7446   66.3667 O   0  0  0  0  0  0  0  0  0  0  0  0
  -36.6612   63.6326   66.4139 H   0  0  0  0  0  0  0  0  0  0  0  0
  -35.9802   60.6729   65.0619 O   0  0  0  0  0  0  0  0  0  0  0  0
  -34.6072   60.5052   65.4868 C   0  0  0  0  0  0  0  0  0  0  0  0
  -33.7799   60.5006   64.2214 C   0  0  0  0  0  0  0  0  0  0  0  0
  -33.2558   59.1520   63.7694 N   0  0  0  0  0  0  0  0  0  0  0  0
  -32.8089   58.3292   64.9348 C   0  0  0  0  0  0  0  0  0  0  0  0
  -32.0933   59.3496   62.8503 C   0  0  0  0  0  0  0  0  0  0  0  0
  -34.3364   58.4108   63.0467 C   0  0  0  0  0  0  0  0  0  0  0  0
 34 33  1  0  0  0
 34 35  1  0  0  0
 34 36  1  0  0  0
 34 37  1  0  0  0
 22 23  1  0  0  0
 22 25  1  0  0  0
 22 21  1  0  0  0
 27 26  1  0  0  0
 27 28  2  0  0  0
 27 31  1  0  0  0
 27 29  1  0  0  0
 25 26  1  0  0  0
 32 33  1  0  0  0
 32 31  1  0  0  0
 20 21  1  0  0  0
 20  2  1  0  0  0
  1  2  2  0  0  0
  2  3  1  0  0  0
  3  4  1  0  0  0
  4  5  1  0  0  0
  5  6  1  0  0  0
  6  7  1  0  0  0
  7  8  1  0  0  0
  8  9  1  0  0  0
  9 10  1  0  0  0
 10 11  2  0  0  0
 11 12  1  0  0  0
 12 13  1  0  0  0
 13 14  1  0  0  0
 14 15  1  0  0  0
 15 16  1  0  0  0
 16 17  1  0  0  0
 17 18  1  0  0  0
 18 19  1  0  0  0
 23 24  1  0  0  0
 29 30  1  0  0  0
M  CHG 1  28  -1
M  END
> <minimizedAffinity>
-8.01730

> <CNNscore>
0.8673340082

> <CNNaffinity>
6.7157087326

> <CNN_VS>
5.8247623444

> <CNNaffinity_variance>
0.4812141359

$$$$



 37 36  0  0  0  0  0  0  0  0999 V2000
  -42.5100   57.0797   65.8585 O   0  0  0  0  0  0  0  0  0  0  0  0
  -42.3108   58.2181   65.5627 C   0  0  0  0  0  0  0  0  0  0  0  0
  -43.3590   59.1593   65.0662 C   0  0  0  0  0  0  0  0  0  0  0  0
  -44.5632   59.2406   65.9854 C   0  0  0  0  0  0  0  0  0  0  0  0
  -45.7395   59.9532   65.3537 C   0  0  0  0  0  0  0  0  0  0  0  0
  -46.7770   59.0357   64.7507 C   0  0  0  0  0  0  0  0  0  0  0  0
  -47.6983   58.4064   65.7644 C   0  0  0  0  0  0  0  0  0  0  0  0
  -48.8671   57.7085   65.1224 C   0  0  0  0  0  0  0  0  0  0  0  0
  -50.1861   58.4116   65.2497 C   0  0  0  0  0  0  0  0  0  0  0  0
  -50.2222   59.7115   64.5640 C   0  0  0  0  0  0  0  0  0  0  0  0
  -50.5833   59.9624   63.3249 C   0  0  0  0  0  0  0  0  0  0  0  0
  -51.0701   59.0019   62.3028 C   0  0  0  0  0  0  0  0  0  0  0  0
  -50.0206   58.0736   61.7266 C   0  0  0  0  0  0  0  0  0  0  0  0
  -50.3496   57.6192   60.3310 C   0  0  0  0  0  0  0  0  0  0  0  0
  -49.5593   56.4276   59.8543 C   0  0  0  0  0  0  0  0  0  0  0  0
  -48.3608   56.8208   59.0191 C   0  0  0  0  0  0  0  0  0  0  0  0
  -47.3650   55.7199   58.7826 C   0  0  0  0  0  0  0  0  0  0  0  0
  -46.9614   55.5948   57.3681 C   0  0  0  0  0  0  0  0  0  0  0  0
  -47.9756   56.0737   56.4309 C   0  0  0  0  0  0  0  0  0  0  0  0
  -41.1149   58.8033   65.6288 O   0  0  0  0  0  0  0  0  0  0  0  0
  -40.9149   60.0034   64.8493 C   0  0  0  0  0  0  0  0  0  0  0  0
  -39.4280   60.2735   64.8247 C   0  0  0  0  0  0  0  0  0  0  0  0
  -39.0098   60.7512   66.1034 O   0  0  0  0  0  0  0  0  0  0  0  0
  -39.1554   60.0614   66.7697 H   0  0  0  0  0  0  0  0  0  0  0  0
  -38.5695   59.0881   64.4556 C   0  0  0  0  0  0  0  0  0  0  0  0
  -38.8949   58.6873   63.1094 O   0  0  0  0  0  0  0  0  0  0  0  0
  -37.7424   58.5889   62.0179 P   0  0  0  0  0  0  0  0  0  0  0  0
  -37.7028   57.1869   61.5554 O   0  0  0  0  0  0  0  0  0  0  0  0
  -37.9904   59.6633   61.0365 O   0  0  0  0  0  0  0  0  0  0  0  0
  -38.8312   59.4984   60.5820 H   0  0  0  0  0  0  0  0  0  0  0  0
  -36.3600   58.9110   62.7267 O   0  0  0  0  0  0  0  0  0  0  0  0
  -35.1716   58.1778   62.3475 C   0  0  0  0  0  0  0  0  0  0  0  0
  -34.3167   58.1029   63.5921 C   0  0  0  0  0  0  0  0  0  0  0  0
  -32.9858   58.8262   63.5343 N   0  0  0  0  0  0  0  0  0  0  0  0
  -33.1536   60.2864   63.8076 C   0  0  0  0  0  0  0  0  0  0  0  0
  -32.3850   58.6605   62.1753 C   0  0  0  0  0  0  0  0  0  0  0  0
  -32.0579   58.2513   64.5579 C   0  0  0  0  0  0  0  0  0  0  0  0
 34 33  1  0  0  0
 34 35  1  0  0  0
 34 36  1  0  0  0
 34 37  1  0  0  0
 22 23  1  0  0  0
 22 25  1  0  0  0
 22 21  1  0  0  0
 27 26  1  0  0  0
 27 28  2  0  0  0
 27 31  1  0  0  0
 27 29  1  0  0  0
 25 26  1  0  0  0
 32 33  1  0  0  0
 32 31  1  0  0  0
 20 21  1  0  0  0
 20  2  1  0  0  0
  1  2  2  0  0  0
  2  3  1  0  0  0
  3  4  1  0  0  0
  4  5  1  0  0  0
  5  6  1  0  0  0
  6  7  1  0  0  0
  7  8  1  0  0  0
  8  9  1  0  0  0
  9 10  1  0  0  0
 10 11  2  0  0  0
 11 12  1  0  0  0
 12 13  1  0  0  0
 13 14  1  0  0  0
 14 15  1  0  0  0
 15 16  1  0  0  0
 16 17  1  0  0  0
 17 18  1  0  0  0
 18 19  1  0  0  0
 23 24  1  0  0  0
 29 30  1  0  0  0
M  CHG 1  28  -1
M  END
> <minimizedAffinity>
-7.67164

> <CNNscore>
0.7796553969

> <CNNaffinity>
6.5274400711

> <CNN_VS>
5.0891537666

> <CNNaffinity_variance>
0.5154026151

$$$$



 37 36  0  0  0  0  0  0  0  0999 V2000
  -42.5227   57.3367   66.3461 O   0  0  0  0  0  0  0  0  0  0  0  0
  -42.4326   58.3635   65.7458 C   0  0  0  0  0  0  0  0  0  0  0  0
  -43.5581   59.0165   65.0121 C   0  0  0  0  0  0  0  0  0  0  0  0
  -44.7039   59.4161   65.9226 C   0  0  0  0  0  0  0  0  0  0  0  0
  -45.8965   59.9587   65.1652 C   0  0  0  0  0  0  0  0  0  0  0  0
  -47.1094   59.0583   65.1790 C   0  0  0  0  0  0  0  0  0  0  0  0
  -48.3517   59.7162   65.7233 C   0  0  0  0  0  0  0  0  0  0  0  0
  -49.6085   58.9948   65.3165 C   0  0  0  0  0  0  0  0  0  0  0  0
  -50.5614   59.7876   64.4718 C   0  0  0  0  0  0  0  0  0  0  0  0
  -49.9100   60.4762   63.3482 C   0  0  0  0  0  0  0  0  0  0  0  0
  -49.8265   60.0816   62.0968 C   0  0  0  0  0  0  0  0  0  0  0  0
  -50.3879   58.8493   61.4880 C   0  0  0  0  0  0  0  0  0  0  0  0
  -49.4479   57.6625   61.4307 C   0  0  0  0  0  0  0  0  0  0  0  0
  -49.1010   57.2631   60.0228 C   0  0  0  0  0  0  0  0  0  0  0  0
  -48.7210   55.8143   59.8550 C   0  0  0  0  0  0  0  0  0  0  0  0
  -47.5183   55.6287   58.9562 C   0  0  0  0  0  0  0  0  0  0  0  0
  -47.8418   55.3221   57.5205 C   0  0  0  0  0  0  0  0  0  0  0  0
  -47.0052   56.0721   56.5630 C   0  0  0  0  0  0  0  0  0  0  0  0
  -46.3017   57.2015   57.1678 C   0  0  0  0  0  0  0  0  0  0  0  0
  -41.3044   59.0658   65.6426 O   0  0  0  0  0  0  0  0  0  0  0  0
  -40.9727   59.6097   64.3456 C   0  0  0  0  0  0  0  0  0  0  0  0
  -40.1369   60.8462   64.5838 C   0  0  0  0  0  0  0  0  0  0  0  0
  -40.9525   62.0083   64.4338 O   0  0  0  0  0  0  0  0  0  0  0  0
  -41.6453   62.0068   65.1127 H   0  0  0  0  0  0  0  0  0  0  0  0
  -39.4608   60.9103   65.9318 C   0  0  0  0  0  0  0  0  0  0  0  0
  -38.0813   60.5225   65.7722 O   0  0  0  0  0  0  0  0  0  0  0  0
  -37.0615   61.5174   65.0654 P   0  0  0  0  0  0  0  0  0  0  0  0
  -35.8935   60.7156   64.6481 O   0  0  0  0  0  0  0  0  0  0  0  0
  -37.8266   62.2593   64.0440 O   0  0  0  0  0  0  0  0  0  0  0  0
  -38.1430   61.6424   63.3656 H   0  0  0  0  0  0  0  0  0  0  0  0
  -36.5718   62.5733   66.1434 O   0  0  0  0  0  0  0  0  0  0  0  0
  -35.3691   62.3153   66.9054 C   0  0  0  0  0  0  0  0  0  0  0  0
  -34.7052   63.6597   67.0988 C   0  0  0  0  0  0  0  0  0  0  0  0
  -33.8371   64.1480   65.9561 N   0  0  0  0  0  0  0  0  0  0  0  0
  -32.6656   64.9258   66.4634 C   0  0  0  0  0  0  0  0  0  0  0  0
  -34.6431   65.0299   65.0572 C   0  0  0  0  0  0  0  0  0  0  0  0
  -33.3314   62.9763   65.1745 C   0  0  0  0  0  0  0  0  0  0  0  0
 34 33  1  0  0  0
 34 35  1  0  0  0
 34 36  1  0  0  0
 34 37  1  0  0  0
 22 23  1  0  0  0
 22 25  1  0  0  0
 22 21  1  0  0  0
 27 26  1  0  0  0
 27 28  2  0  0  0
 27 31  1  0  0  0
 27 29  1  0  0  0
 25 26  1  0  0  0
 32 33  1  0  0  0
 32 31  1  0  0  0
 20 21  1  0  0  0
 20  2  1  0  0  0
  1  2  2  0  0  0
  2  3  1  0  0  0
  3  4  1  0  0  0
  4  5  1  0  0  0
  5  6  1  0  0  0
  6  7  1  0  0  0
  7  8  1  0  0  0
  8  9  1  0  0  0
  9 10  1  0  0  0
 10 11  2  0  0  0
 11 12  1  0  0  0
 12 13  1  0  0  0
 13 14  1  0  0  0
 14 15  1  0  0  0
 15 16  1  0  0  0
 16 17  1  0  0  0
 17 18  1  0  0  0
 18 19  1  0  0  0
 23 24  1  0  0  0
 29 30  1  0  0  0
M  CHG 1  28  -1
M  END
> <minimizedAffinity>
-7.77185

> <CNNscore>
0.7310826182

> <CNNaffinity>
6.4311151505

> <CNN_VS>
4.7016763687

> <CNNaffinity_variance>
0.4741724432

$$$$



 37 36  0  0  0  0  0  0  0  0999 V2000
  -41.9537   58.2801   66.5660 O   0  0  0  0  0  0  0  0  0  0  0  0
  -42.3323   59.2111   65.9234 C   0  0  0  0  0  0  0  0  0  0  0  0
  -43.7640   59.6092   65.7725 C   0  0  0  0  0  0  0  0  0  0  0  0
  -44.5051   58.7719   64.7473 C   0  0  0  0  0  0  0  0  0  0  0  0
  -44.8901   57.4049   65.2702 C   0  0  0  0  0  0  0  0  0  0  0  0
  -46.3681   57.2255   65.5253 C   0  0  0  0  0  0  0  0  0  0  0  0
  -47.2456   58.1125   64.6794 C   0  0  0  0  0  0  0  0  0  0  0  0
  -48.2446   58.8828   65.5003 C   0  0  0  0  0  0  0  0  0  0  0  0
  -49.6848   58.5627   65.2288 C   0  0  0  0  0  0  0  0  0  0  0  0
  -50.5483   59.7517   65.1873 C   0  0  0  0  0  0  0  0  0  0  0  0
  -51.1799   60.2567   64.1507 C   0  0  0  0  0  0  0  0  0  0  0  0
  -51.2039   59.7448   62.7572 C   0  0  0  0  0  0  0  0  0  0  0  0
  -50.0648   60.2073   61.8718 C   0  0  0  0  0  0  0  0  0  0  0  0
  -49.6616   59.1739   60.8561 C   0  0  0  0  0  0  0  0  0  0  0  0
  -49.5800   57.7662   61.3886 C   0  0  0  0  0  0  0  0  0  0  0  0
  -49.6957   56.7242   60.2980 C   0  0  0  0  0  0  0  0  0  0  0  0
  -49.4582   57.2365   58.9048 C   0  0  0  0  0  0  0  0  0  0  0  0
  -48.0975   56.9554   58.4060 C   0  0  0  0  0  0  0  0  0  0  0  0
  -48.0793   56.3801   57.0626 C   0  0  0  0  0  0  0  0  0  0  0  0
  -41.5216   60.0213   65.2428 O   0  0  0  0  0  0  0  0  0  0  0  0
  -40.1162   59.6868   65.2110 C   0  0  0  0  0  0  0  0  0  0  0  0
  -39.3517   60.9891   65.1475 C   0  0  0  0  0  0  0  0  0  0  0  0
  -40.0980   62.0118   65.8073 O   0  0  0  0  0  0  0  0  0  0  0  0
  -40.1901   61.7897   66.7470 H   0  0  0  0  0  0  0  0  0  0  0  0
  -37.9677   60.9473   65.7486 C   0  0  0  0  0  0  0  0  0  0  0  0
  -37.4414   62.2892   65.7822 O   0  0  0  0  0  0  0  0  0  0  0  0
  -35.9966   62.5825   65.1854 P   0  0  0  0  0  0  0  0  0  0  0  0
  -36.1488   62.6998   63.7211 O   0  0  0  0  0  0  0  0  0  0  0  0
  -35.4436   63.7212   65.9447 O   0  0  0  0  0  0  0  0  0  0  0  0
  -35.9856   64.5097   65.7854 H   0  0  0  0  0  0  0  0  0  0  0  0
  -35.0734   61.3273   65.4837 O   0  0  0  0  0  0  0  0  0  0  0  0
  -34.6092   60.5021   64.3895 C   0  0  0  0  0  0  0  0  0  0  0  0
  -34.8190   59.0717   64.8318 C   0  0  0  0  0  0  0  0  0  0  0  0
  -35.7530   58.2373   63.9779 N   0  0  0  0  0  0  0  0  0  0  0  0
  -36.5248   59.0949   63.0272 C   0  0  0  0  0  0  0  0  0  0  0  0
  -36.7190   57.5101   64.8573 C   0  0  0  0  0  0  0  0  0  0  0  0
  -34.9586   57.2440   63.1895 C   0  0  0  0  0  0  0  0  0  0  0  0
 34 33  1  0  0  0
 34 35  1  0  0  0
 34 36  1  0  0  0
 34 37  1  0  0  0
 22 23  1  0  0  0
 22 25  1  0  0  0
 22 21  1  0  0  0
 27 26  1  0  0  0
 27 28  2  0  0  0
 27 31  1  0  0  0
 27 29  1  0  0  0
 25 26  1  0  0  0
 32 33  1  0  0  0
 32 31  1  0  0  0
 20 21  1  0  0  0
 20  2  1  0  0  0
  1  2  2  0  0  0
  2  3  1  0  0  0
  3  4  1  0  0  0
  4  5  1  0  0  0
  5  6  1  0  0  0
  6  7  1  0  0  0
  7  8  1  0  0  0
  8  9  1  0  0  0
  9 10  1  0  0  0
 10 11  2  0  0  0
 11 12  1  0  0  0
 12 13  1  0  0  0
 13 14  1  0  0  0
 14 15  1  0  0  0
 15 16  1  0  0  0
 16 17  1  0  0  0
 17 18  1  0  0  0
 18 19  1  0  0  0
 23 24  1  0  0  0
 29 30  1  0  0  0
M  CHG 1  28  -1
M  END
> <minimizedAffinity>
-8.15175

> <CNNscore>
0.6980185509

> <CNNaffinity>
6.5856847763

> <CNN_VS>
4.5969300270

> <CNNaffinity_variance>
0.2139735967

$$$$



 37 36  0  0  0  0  0  0  0  0999 V2000
  -42.7794   60.2227   64.1387 O   0  0  0  0  0  0  0  0  0  0  0  0
  -42.7023   59.7014   65.2089 C   0  0  0  0  0  0  0  0  0  0  0  0
  -43.8622   59.4621   66.1192 C   0  0  0  0  0  0  0  0  0  0  0  0
  -45.2013   59.6241   65.4250 C   0  0  0  0  0  0  0  0  0  0  0  0
  -45.8430   58.3012   65.0665 C   0  0  0  0  0  0  0  0  0  0  0  0
  -47.2457   58.4140   64.5173 C   0  0  0  0  0  0  0  0  0  0  0  0
  -48.3153   58.4547   65.5787 C   0  0  0  0  0  0  0  0  0  0  0  0
  -49.0608   59.7622   65.5925 C   0  0  0  0  0  0  0  0  0  0  0  0
  -50.4620   59.7102   65.0597 C   0  0  0  0  0  0  0  0  0  0  0  0
  -50.6486   60.4983   63.8328 C   0  0  0  0  0  0  0  0  0  0  0  0
  -50.8857   60.0579   62.6169 C   0  0  0  0  0  0  0  0  0  0  0  0
  -51.0493   58.6514   62.1704 C   0  0  0  0  0  0  0  0  0  0  0  0
  -49.8314   57.7664   62.3400 C   0  0  0  0  0  0  0  0  0  0  0  0
  -49.3464   57.1892   61.0386 C   0  0  0  0  0  0  0  0  0  0  0  0
  -49.9394   57.8259   59.8078 C   0  0  0  0  0  0  0  0  0  0  0  0
  -49.4309   57.2009   58.5273 C   0  0  0  0  0  0  0  0  0  0  0  0
  -48.0312   56.6576   58.6000 C   0  0  0  0  0  0  0  0  0  0  0  0
  -47.1830   57.0827   57.4691 C   0  0  0  0  0  0  0  0  0  0  0  0
  -47.5199   56.4208   56.2103 C   0  0  0  0  0  0  0  0  0  0  0  0
  -41.5603   59.2673   65.7419 O   0  0  0  0  0  0  0  0  0  0  0  0
  -40.3558   60.0016   65.4288 C   0  0  0  0  0  0  0  0  0  0  0  0
  -39.6311   59.2265   64.3525 C   0  0  0  0  0  0  0  0  0  0  0  0
  -39.7621   59.9082   63.1050 O   0  0  0  0  0  0  0  0  0  0  0  0
  -39.3287   60.7741   63.1627 H   0  0  0  0  0  0  0  0  0  0  0  0
  -38.1633   58.9904   64.6138 C   0  0  0  0  0  0  0  0  0  0  0  0
  -37.4028   59.9688   63.8767 O   0  0  0  0  0  0  0  0  0  0  0  0
  -36.6810   61.1530   64.6551 P   0  0  0  0  0  0  0  0  0  0  0  0
  -37.2598   62.4162   64.1544 O   0  0  0  0  0  0  0  0  0  0  0  0
  -36.7759   60.8389   66.0943 O   0  0  0  0  0  0  0  0  0  0  0  0
  -37.7072   60.8428   66.3654 H   0  0  0  0  0  0  0  0  0  0  0  0
  -35.1418   61.1325   64.2710 O   0  0  0  0  0  0  0  0  0  0  0  0
  -34.2194   62.0103   64.9582 C   0  0  0  0  0  0  0  0  0  0  0  0
  -33.5664   62.8484   63.8826 C   0  0  0  0  0  0  0  0  0  0  0  0
  -33.9412   64.3170   63.8586 N   0  0  0  0  0  0  0  0  0  0  0  0
  -34.7640   64.6436   62.6539 C   0  0  0  0  0  0  0  0  0  0  0  0
  -32.6998   65.1497   63.8293 C   0  0  0  0  0  0  0  0  0  0  0  0
  -34.7323   64.6525   65.0837 C   0  0  0  0  0  0  0  0  0  0  0  0
 34 33  1  0  0  0
 34 35  1  0  0  0
 34 36  1  0  0  0
 34 37  1  0  0  0
 22 23  1  0  0  0
 22 25  1  0  0  0
 22 21  1  0  0  0
 27 26  1  0  0  0
 27 28  2  0  0  0
 27 31  1  0  0  0
 27 29  1  0  0  0
 25 26  1  0  0  0
 32 33  1  0  0  0
 32 31  1  0  0  0
 20 21  1  0  0  0
 20  2  1  0  0  0
  1  2  2  0  0  0
  2  3  1  0  0  0
  3  4  1  0  0  0
  4  5  1  0  0  0
  5  6  1  0  0  0
  6  7  1  0  0  0
  7  8  1  0  0  0
  8  9  1  0  0  0
  9 10  1  0  0  0
 10 11  2  0  0  0
 11 12  1  0  0  0
 12 13  1  0  0  0
 13 14  1  0  0  0
 14 15  1  0  0  0
 15 16  1  0  0  0
 16 17  1  0  0  0
 17 18  1  0  0  0
 18 19  1  0  0  0
 23 24  1  0  0  0
 29 30  1  0  0  0
M  CHG 1  28  -1
M  END
> <minimizedAffinity>
-7.57505

> <CNNscore>
0.6916761398

> <CNNaffinity>
6.2639074326

> <CNN_VS>
4.3325953484

> <CNNaffinity_variance>
0.5099532604

$$$$



 37 36  0  0  0  0  0  0  0  0999 V2000
  -41.8755   60.9176   66.8630 O   0  0  0  0  0  0  0  0  0  0  0  0
  -41.4708   60.0541   66.1464 C   0  0  0  0  0  0  0  0  0  0  0  0
  -42.2241   58.8078   65.8139 C   0  0  0  0  0  0  0  0  0  0  0  0
  -43.4832   59.0750   65.0111 C   0  0  0  0  0  0  0  0  0  0  0  0
  -44.7323   58.5427   65.6796 C   0  0  0  0  0  0  0  0  0  0  0  0
  -45.6825   57.8250   64.7503 C   0  0  0  0  0  0  0  0  0  0  0  0
  -47.0624   57.6252   65.3234 C   0  0  0  0  0  0  0  0  0  0  0  0
  -48.0795   58.5467   64.7056 C   0  0  0  0  0  0  0  0  0  0  0  0
  -49.5131   58.1970   64.9753 C   0  0  0  0  0  0  0  0  0  0  0  0
  -50.3602   59.3700   65.2351 C   0  0  0  0  0  0  0  0  0  0  0  0
  -50.9995   60.1155   64.3609 C   0  0  0  0  0  0  0  0  0  0  0  0
  -51.0508   59.9532   62.8860 C   0  0  0  0  0  0  0  0  0  0  0  0
  -49.8332   60.4471   62.1317 C   0  0  0  0  0  0  0  0  0  0  0  0
  -49.7052   59.8294   60.7664 C   0  0  0  0  0  0  0  0  0  0  0  0
  -49.5395   58.3313   60.7662 C   0  0  0  0  0  0  0  0  0  0  0  0
  -50.1200   57.6820   59.5293 C   0  0  0  0  0  0  0  0  0  0  0  0
  -49.1260   56.9474   58.6738 C   0  0  0  0  0  0  0  0  0  0  0  0
  -48.2171   56.0822   59.4512 C   0  0  0  0  0  0  0  0  0  0  0  0
  -47.0834   55.5849   58.6742 C   0  0  0  0  0  0  0  0  0  0  0  0
  -40.2795   60.0836   65.5490 O   0  0  0  0  0  0  0  0  0  0  0  0
  -39.7871   61.3674   65.1047 C   0  0  0  0  0  0  0  0  0  0  0  0
  -38.2776   61.2980   65.1351 C   0  0  0  0  0  0  0  0  0  0  0  0
  -37.7596   62.4711   65.7625 O   0  0  0  0  0  0  0  0  0  0  0  0
  -38.0545   62.5008   66.6861 H   0  0  0  0  0  0  0  0  0  0  0  0
  -37.7077   60.0907   65.8396 C   0  0  0  0  0  0  0  0  0  0  0  0
  -36.8691   59.3719   64.9128 O   0  0  0  0  0  0  0  0  0  0  0  0
  -37.2692   57.8975   64.4709 P   0  0  0  0  0  0  0  0  0  0  0  0
  -36.6689   56.9731   65.4538 O   0  0  0  0  0  0  0  0  0  0  0  0
  -38.7327   57.8913   64.2781 O   0  0  0  0  0  0  0  0  0  0  0  0
  -39.1712   58.0661   65.1255 H   0  0  0  0  0  0  0  0  0  0  0  0
  -36.6087   57.6076   63.0578 O   0  0  0  0  0  0  0  0  0  0  0  0
  -35.4964   58.4155   62.6066 C   0  0  0  0  0  0  0  0  0  0  0  0
  -34.2503   57.7199   63.1056 C   0  0  0  0  0  0  0  0  0  0  0  0
  -33.1924   58.6082   63.7298 N   0  0  0  0  0  0  0  0  0  0  0  0
  -32.8197   58.1251   65.0945 C   0  0  0  0  0  0  0  0  0  0  0  0
  -33.7151   60.0043   63.8435 C   0  0  0  0  0  0  0  0  0  0  0  0
  -31.9670   58.6080   62.8708 C   0  0  0  0  0  0  0  0  0  0  0  0
 34 33  1  0  0  0
 34 35  1  0  0  0
 34 36  1  0  0  0
 34 37  1  0  0  0
 22 23  1  0  0  0
 22 25  1  0  0  0
 22 21  1  0  0  0
 27 26  1  0  0  0
 27 28  2  0  0  0
 27 31  1  0  0  0
 27 29  1  0  0  0
 25 26  1  0  0  0
 32 33  1  0  0  0
 32 31  1  0  0  0
 20 21  1  0  0  0
 20  2  1  0  0  0
  1  2  2  0  0  0
  2  3  1  0  0  0
  3  4  1  0  0  0
  4  5  1  0  0  0
  5  6  1  0  0  0
  6  7  1  0  0  0
  7  8  1  0  0  0
  8  9  1  0  0  0
  9 10  1  0  0  0
 10 11  2  0  0  0
 11 12  1  0  0  0
 12 13  1  0  0  0
 13 14  1  0  0  0
 14 15  1  0  0  0
 15 16  1  0  0  0
 16 17  1  0  0  0
 17 18  1  0  0  0
 18 19  1  0  0  0
 23 24  1  0  0  0
 29 30  1  0  0  0
M  CHG 1  28  -1
M  END
> <minimizedAffinity>
-7.98084

> <CNNscore>
0.6737794280

> <CNNaffinity>
6.4101042747

> <CNN_VS>
4.3189964294

> <CNNaffinity_variance>
0.3831087947

$$$$



 37 36  0  0  0  0  0  0  0  0999 V2000
  -43.0507   59.4481   65.1337 O   0  0  0  0  0  0  0  0  0  0  0  0
  -42.5620   58.4041   65.4404 C   0  0  0  0  0  0  0  0  0  0  0  0
  -43.3368   57.1967   65.8564 C   0  0  0  0  0  0  0  0  0  0  0  0
  -44.6051   57.0010   65.0473 C   0  0  0  0  0  0  0  0  0  0  0  0
  -45.8291   57.5837   65.7203 C   0  0  0  0  0  0  0  0  0  0  0  0
  -46.9341   57.9845   64.7715 C   0  0  0  0  0  0  0  0  0  0  0  0
  -48.3035   58.0002   65.4014 C   0  0  0  0  0  0  0  0  0  0  0  0
  -48.9228   59.3720   65.3946 C   0  0  0  0  0  0  0  0  0  0  0  0
  -50.3279   59.4417   64.8740 C   0  0  0  0  0  0  0  0  0  0  0  0
  -50.4664   60.2917   63.6826 C   0  0  0  0  0  0  0  0  0  0  0  0
  -50.1837   59.9878   62.4351 C   0  0  0  0  0  0  0  0  0  0  0  0
  -49.6725   58.7000   61.9017 C   0  0  0  0  0  0  0  0  0  0  0  0
  -49.8156   58.5097   60.4055 C   0  0  0  0  0  0  0  0  0  0  0  0
  -50.1879   57.1013   60.0316 C   0  0  0  0  0  0  0  0  0  0  0  0
  -49.0481   56.1161   60.0759 C   0  0  0  0  0  0  0  0  0  0  0  0
  -48.0625   56.3157   58.9457 C   0  0  0  0  0  0  0  0  0  0  0  0
  -48.6450   56.9140   57.6957 C   0  0  0  0  0  0  0  0  0  0  0  0
  -48.2091   56.2266   56.4642 C   0  0  0  0  0  0  0  0  0  0  0  0
  -47.0788   55.3237   56.6728 C   0  0  0  0  0  0  0  0  0  0  0  0
  -41.2486   58.1773   65.4605 O   0  0  0  0  0  0  0  0  0  0  0  0
  -40.3729   59.3051   65.2385 C   0  0  0  0  0  0  0  0  0  0  0  0
  -39.3579   58.8811   64.2020 C   0  0  0  0  0  0  0  0  0  0  0  0
  -39.4245   59.7634   63.0817 O   0  0  0  0  0  0  0  0  0  0  0  0
  -39.1784   60.6593   63.3606 H   0  0  0  0  0  0  0  0  0  0  0  0
  -37.9295   58.8360   64.6879 C   0  0  0  0  0  0  0  0  0  0  0  0
  -37.0619   58.6734   63.5478 O   0  0  0  0  0  0  0  0  0  0  0  0
  -35.7326   57.8116   63.6877 P   0  0  0  0  0  0  0  0  0  0  0  0
  -35.8272   57.0740   64.9636 O   0  0  0  0  0  0  0  0  0  0  0  0
  -35.5790   57.0555   62.4293 O   0  0  0  0  0  0  0  0  0  0  0  0
  -36.3164   56.4325   62.3343 H   0  0  0  0  0  0  0  0  0  0  0  0
  -34.5035   58.8098   63.7881 O   0  0  0  0  0  0  0  0  0  0  0  0
  -34.4397   59.7619   64.8758 C   0  0  0  0  0  0  0  0  0  0  0  0
  -34.4946   61.1292   64.2330 C   0  0  0  0  0  0  0  0  0  0  0  0
  -35.0392   62.2520   65.0935 N   0  0  0  0  0  0  0  0  0  0  0  0
  -34.6596   63.5878   64.5401 C   0  0  0  0  0  0  0  0  0  0  0  0
  -34.4872   62.1340   66.4779 C   0  0  0  0  0  0  0  0  0  0  0  0
  -36.5320   62.1630   65.1477 C   0  0  0  0  0  0  0  0  0  0  0  0
 34 33  1  0  0  0
 34 35  1  0  0  0
 34 36  1  0  0  0
 34 37  1  0  0  0
 22 23  1  0  0  0
 22 25  1  0  0  0
 22 21  1  0  0  0
 27 26  1  0  0  0
 27 28  2  0  0  0
 27 31  1  0  0  0
 27 29  1  0  0  0
 25 26  1  0  0  0
 32 33  1  0  0  0
 32 31  1  0  0  0
 20 21  1  0  0  0
 20  2  1  0  0  0
  1  2  2  0  0  0
  2  3  1  0  0  0
  3  4  1  0  0  0
  4  5  1  0  0  0
  5  6  1  0  0  0
  6  7  1  0  0  0
  7  8  1  0  0  0
  8  9  1  0  0  0
  9 10  1  0  0  0
 10 11  2  0  0  0
 11 12  1  0  0  0
 12 13  1  0  0  0
 13 14  1  0  0  0
 14 15  1  0  0  0
 15 16  1  0  0  0
 16 17  1  0  0  0
 17 18  1  0  0  0
 18 19  1  0  0  0
 23 24  1  0  0  0
 29 30  1  0  0  0
M  CHG 1  28  -1
M  END
> <minimizedAffinity>
-7.52569

> <CNNscore>
0.6622824073

> <CNNaffinity>
6.4115676880

> <CNN_VS>
4.2462682724

> <CNNaffinity_variance>
0.4657663703

$$$$



 37 36  0  0  0  0  0  0  0  0999 V2000
  -41.8544   59.6552   67.1763 O   0  0  0  0  0  0  0  0  0  0  0  0
  -41.7350   60.2505   66.1495 C   0  0  0  0  0  0  0  0  0  0  0  0
  -42.7993   60.3626   65.1075 C   0  0  0  0  0  0  0  0  0  0  0  0
  -43.6155   59.0926   64.9576 C   0  0  0  0  0  0  0  0  0  0  0  0
  -45.0954   59.3131   65.1847 C   0  0  0  0  0  0  0  0  0  0  0  0
  -45.9212   58.0483   65.2040 C   0  0  0  0  0  0  0  0  0  0  0  0
  -47.3006   58.2289   65.7843 C   0  0  0  0  0  0  0  0  0  0  0  0
  -48.3863   57.8589   64.8097 C   0  0  0  0  0  0  0  0  0  0  0  0
  -49.7767   58.2489   65.2159 C   0  0  0  0  0  0  0  0  0  0  0  0
  -50.0388   59.6897   65.0874 C   0  0  0  0  0  0  0  0  0  0  0  0
  -50.7016   60.3094   64.1359 C   0  0  0  0  0  0  0  0  0  0  0  0
  -51.3772   59.7132   62.9558 C   0  0  0  0  0  0  0  0  0  0  0  0
  -50.4774   59.3970   61.7787 C   0  0  0  0  0  0  0  0  0  0  0  0
  -50.2019   57.9253   61.6365 C   0  0  0  0  0  0  0  0  0  0  0  0
  -50.7566   57.2992   60.3827 C   0  0  0  0  0  0  0  0  0  0  0  0
  -49.7357   57.2252   59.2688 C   0  0  0  0  0  0  0  0  0  0  0  0
  -48.8116   56.0413   59.3342 C   0  0  0  0  0  0  0  0  0  0  0  0
  -47.3937   56.3986   59.1319 C   0  0  0  0  0  0  0  0  0  0  0  0
  -47.1092   56.9082   57.7919 C   0  0  0  0  0  0  0  0  0  0  0  0
  -40.6239   60.8930   65.7896 O   0  0  0  0  0  0  0  0  0  0  0  0
  -39.5128   60.0955   65.3232 C   0  0  0  0  0  0  0  0  0  0  0  0
  -38.3123   61.0104   65.2452 C   0  0  0  0  0  0  0  0  0  0  0  0
  -38.6649   62.3018   65.7412 O   0  0  0  0  0  0  0  0  0  0  0  0
  -38.9016   62.2343   66.6794 H   0  0  0  0  0  0  0  0  0  0  0  0
  -37.0932   60.5297   65.9943 C   0  0  0  0  0  0  0  0  0  0  0  0
  -36.6519   61.5818   66.8759 O   0  0  0  0  0  0  0  0  0  0  0  0
  -35.3303   62.3958   66.5292 P   0  0  0  0  0  0  0  0  0  0  0  0
  -35.7561   63.6974   65.9764 O   0  0  0  0  0  0  0  0  0  0  0  0
  -34.4830   62.3699   67.7377 O   0  0  0  0  0  0  0  0  0  0  0  0
  -34.9309   62.8424   68.4568 H   0  0  0  0  0  0  0  0  0  0  0  0
  -34.5496   61.6116   65.3922 O   0  0  0  0  0  0  0  0  0  0  0  0
  -34.3313   62.2406   64.1075 C   0  0  0  0  0  0  0  0  0  0  0  0
  -32.9623   62.8773   64.1856 C   0  0  0  0  0  0  0  0  0  0  0  0
  -32.8593   64.3059   63.6893 N   0  0  0  0  0  0  0  0  0  0  0  0
  -31.6143   64.5092   62.8870 C   0  0  0  0  0  0  0  0  0  0  0  0
  -32.8336   65.2402   64.8562 C   0  0  0  0  0  0  0  0  0  0  0  0
  -34.0410   64.6238   62.8280 C   0  0  0  0  0  0  0  0  0  0  0  0
 34 33  1  0  0  0
 34 35  1  0  0  0
 34 36  1  0  0  0
 34 37  1  0  0  0
 22 23  1  0  0  0
 22 25  1  0  0  0
 22 21  1  0  0  0
 27 26  1  0  0  0
 27 28  2  0  0  0
 27 31  1  0  0  0
 27 29  1  0  0  0
 25 26  1  0  0  0
 32 33  1  0  0  0
 32 31  1  0  0  0
 20 21  1  0  0  0
 20  2  1  0  0  0
  1  2  2  0  0  0
  2  3  1  0  0  0
  3  4  1  0  0  0
  4  5  1  0  0  0
  5  6  1  0  0  0
  6  7  1  0  0  0
  7  8  1  0  0  0
  8  9  1  0  0  0
  9 10  1  0  0  0
 10 11  2  0  0  0
 11 12  1  0  0  0
 12 13  1  0  0  0
 13 14  1  0  0  0
 14 15  1  0  0  0
 15 16  1  0  0  0
 16 17  1  0  0  0
 17 18  1  0  0  0
 18 19  1  0  0  0
 23 24  1  0  0  0
 29 30  1  0  0  0
M  CHG 1  28  -1
M  END
> <minimizedAffinity>
-8.22935

> <CNNscore>
0.6418954730

> <CNNaffinity>
6.1883687973

> <CNN_VS>
3.9722859859

> <CNNaffinity_variance>
0.4504088759

$$$$
