


 37 36  0  0  0  0  0  0  0  0999 V2000
  -43.2769   59.6799   63.6412 O   0  0  0  0  0  0  0  0  0  0  0  0
  -42.8913   58.7195   64.2344 C   0  0  0  0  0  0  0  0  0  0  0  0
  -43.7761   57.6340   64.7539 C   0  0  0  0  0  0  0  0  0  0  0  0
  -45.1921   58.1055   65.0261 C   0  0  0  0  0  0  0  0  0  0  0  0
  -45.3836   58.6098   66.4401 C   0  0  0  0  0  0  0  0  0  0  0  0
  -46.8011   58.5125   66.9530 C   0  0  0  0  0  0  0  0  0  0  0  0
  -47.7031   57.6611   66.0963 C   0  0  0  0  0  0  0  0  0  0  0  0
  -49.0558   58.2873   65.8881 C   0  0  0  0  0  0  0  0  0  0  0  0
  -49.1007   59.4065   64.8902 C   0  0  0  0  0  0  0  0  0  0  0  0
  -50.4618   59.8907   64.6183 C   0  0  0  0  0  0  0  0  0  0  0  0
  -51.2689   59.5306   63.6448 C   0  0  0  0  0  0  0  0  0  0  0  0
  -51.0244   58.5250   62.5802 C   0  0  0  0  0  0  0  0  0  0  0  0
  -49.7305   58.6908   61.8098 C   0  0  0  0  0  0  0  0  0  0  0  0
  -49.9042   58.4835   60.3303 C   0  0  0  0  0  0  0  0  0  0  0  0
  -49.4400   57.1418   59.8239 C   0  0  0  0  0  0  0  0  0  0  0  0
  -48.0168   57.1741   59.3120 C   0  0  0  0  0  0  0  0  0  0  0  0
  -47.7713   58.1364   58.1835 C   0  0  0  0  0  0  0  0  0  0  0  0
  -47.1729   57.4978   56.9947 C   0  0  0  0  0  0  0  0  0  0  0  0
  -47.1571   56.0381   57.0662 C   0  0  0  0  0  0  0  0  0  0  0  0
  -41.6100   58.4900   64.5216 O   0  0  0  0  0  0  0  0  0  0  0  0
  -41.1102   58.9833   65.7845 C   0  0  0  0  0  0  0  0  0  0  0  0
  -40.2144   60.1613   65.4773 C   0  0  0  0  0  0  0  0  0  0  0  0
  -40.6627   61.3033   66.2073 O   0  0  0  0  0  0  0  0  0  0  0  0
  -40.5794   61.1322   67.1584 H   0  0  0  0  0  0  0  0  0  0  0  0
  -38.7513   59.9473   65.7802 C   0  0  0  0  0  0  0  0  0  0  0  0
  -37.9964   61.0171   65.1764 O   0  0  0  0  0  0  0  0  0  0  0  0
  -36.8349   60.6754   64.1451 P   0  0  0  0  0  0  0  0  0  0  0  0
  -37.0893   61.4714   62.9274 O   0  0  0  0  0  0  0  0  0  0  0  0
  -35.5585   60.8508   64.8655 O   0  0  0  0  0  0  0  0  0  0  0  0
  -35.4544   61.7818   65.1171 H   0  0  0  0  0  0  0  0  0  0  0  0
  -36.9495   59.1405   63.7608 O   0  0  0  0  0  0  0  0  0  0  0  0
  -37.0185   58.7529   62.3684 C   0  0  0  0  0  0  0  0  0  0  0  0
  -38.3509   58.0594   62.1973 C   0  0  0  0  0  0  0  0  0  0  0  0
  -39.2883   58.6559   61.1661 N   0  0  0  0  0  0  0  0  0  0  0  0
  -38.5572   58.9999   59.9083 C   0  0  0  0  0  0  0  0  0  0  0  0
  -39.9079   59.9012   61.7144 C   0  0  0  0  0  0  0  0  0  0  0  0
  -40.3661   57.6707   60.8390 C   0  0  0  0  0  0  0  0  0  0  0  0
 34 33  1  0  0  0
 34 35  1  0  0  0
 34 36  1  0  0  0
 34 37  1  0  0  0
 22 23  1  0  0  0
 22 25  1  0  0  0
 22 21  1  0  0  0
 27 26  1  0  0  0
 27 28  2  0  0  0
 27 31  1  0  0  0
 27 29  1  0  0  0
 25 26  1  0  0  0
 32 33  1  0  0  0
 32 31  1  0  0  0
 20 21  1  0  0  0
 20  2  1  0  0  0
  1  2  2  0  0  0
  2  3  1  0  0  0
  3  4  1  0  0  0
  4  5  1  0  0  0
  5  6  1  0  0  0
  6  7  1  0  0  0
  7  8  1  0  0  0
  8  9  1  0  0  0
  9 10  1  0  0  0
 10 11  2  0  0  0
 11 12  1  0  0  0
 12 13  1  0  0  0
 13 14  1  0  0  0
 14 15  1  0  0  0
 15 16  1  0  0  0
 16 17  1  0  0  0
 17 18  1  0  0  0
 18 19  1  0  0  0
 23 24  1  0  0  0
 29 30  1  0  0  0
M  CHG 1  28  -1
M  END
> <minimizedAffinity>
-8.02728

> <CNNscore>
0.8675976992

> <CNNaffinity>
7.3416290283

> <CNN_VS>
6.3695802689

> <CNNaffinity_variance>
0.1896826774

$$$$



 37 36  0  0  0  0  0  0  0  0999 V2000
  -41.2387   58.5260   63.7383 O   0  0  0  0  0  0  0  0  0  0  0  0
  -40.8921   58.6686   64.8708 C   0  0  0  0  0  0  0  0  0  0  0  0
  -41.7993   59.0625   65.9902 C   0  0  0  0  0  0  0  0  0  0  0  0
  -42.4881   57.8761   66.6378 C   0  0  0  0  0  0  0  0  0  0  0  0
  -43.6051   57.3080   65.7892 C   0  0  0  0  0  0  0  0  0  0  0  0
  -44.6977   58.2945   65.4502 C   0  0  0  0  0  0  0  0  0  0  0  0
  -45.6018   58.6262   66.6098 C   0  0  0  0  0  0  0  0  0  0  0  0
  -47.0545   58.6495   66.2168 C   0  0  0  0  0  0  0  0  0  0  0  0
  -47.3222   58.8135   64.7499 C   0  0  0  0  0  0  0  0  0  0  0  0
  -48.1387   59.9947   64.4350 C   0  0  0  0  0  0  0  0  0  0  0  0
  -49.3864   60.0285   64.0217 C   0  0  0  0  0  0  0  0  0  0  0  0
  -50.3025   58.8839   63.7872 C   0  0  0  0  0  0  0  0  0  0  0  0
  -51.1299   58.9584   62.5203 C   0  0  0  0  0  0  0  0  0  0  0  0
  -51.0707   57.6913   61.7120 C   0  0  0  0  0  0  0  0  0  0  0  0
  -50.5294   57.8602   60.3155 C   0  0  0  0  0  0  0  0  0  0  0  0
  -49.0173   57.8871   60.2772 C   0  0  0  0  0  0  0  0  0  0  0  0
  -48.4229   58.1678   58.9253 C   0  0  0  0  0  0  0  0  0  0  0  0
  -47.3968   57.1846   58.5257 C   0  0  0  0  0  0  0  0  0  0  0  0
  -47.1091   57.1961   57.0928 C   0  0  0  0  0  0  0  0  0  0  0  0
  -39.6376   58.5017   65.2891 O   0  0  0  0  0  0  0  0  0  0  0  0
  -38.9154   59.6769   65.7196 C   0  0  0  0  0  0  0  0  0  0  0  0
  -38.1570   60.1956   64.5196 C   0  0  0  0  0  0  0  0  0  0  0  0
  -39.0495   60.9109   63.6652 O   0  0  0  0  0  0  0  0  0  0  0  0
  -39.3924   61.6880   64.1337 H   0  0  0  0  0  0  0  0  0  0  0  0
  -36.9865   61.0924   64.8424 C   0  0  0  0  0  0  0  0  0  0  0  0
  -37.2415   61.7437   66.1032 O   0  0  0  0  0  0  0  0  0  0  0  0
  -36.2222   62.8387   66.6431 P   0  0  0  0  0  0  0  0  0  0  0  0
  -36.3934   64.0411   65.8027 O   0  0  0  0  0  0  0  0  0  0  0  0
  -36.4382   62.9425   68.0996 O   0  0  0  0  0  0  0  0  0  0  0  0
  -37.3335   63.2742   68.2709 H   0  0  0  0  0  0  0  0  0  0  0  0
  -34.7484   62.2936   66.4251 O   0  0  0  0  0  0  0  0  0  0  0  0
  -33.6366   63.2196   66.4062 C   0  0  0  0  0  0  0  0  0  0  0  0
  -32.9850   63.0565   65.0518 C   0  0  0  0  0  0  0  0  0  0  0  0
  -32.3456   64.2983   64.4628 N   0  0  0  0  0  0  0  0  0  0  0  0
  -33.3826   65.2708   64.0004 C   0  0  0  0  0  0  0  0  0  0  0  0
  -31.4942   63.9164   63.2947 C   0  0  0  0  0  0  0  0  0  0  0  0
  -31.4941   64.9629   65.4984 C   0  0  0  0  0  0  0  0  0  0  0  0
 34 33  1  0  0  0
 34 35  1  0  0  0
 34 36  1  0  0  0
 34 37  1  0  0  0
 22 23  1  0  0  0
 22 25  1  0  0  0
 22 21  1  0  0  0
 27 26  1  0  0  0
 27 28  2  0  0  0
 27 31  1  0  0  0
 27 29  1  0  0  0
 25 26  1  0  0  0
 32 33  1  0  0  0
 32 31  1  0  0  0
 20 21  1  0  0  0
 20  2  1  0  0  0
  1  2  2  0  0  0
  2  3  1  0  0  0
  3  4  1  0  0  0
  4  5  1  0  0  0
  5  6  1  0  0  0
  6  7  1  0  0  0
  7  8  1  0  0  0
  8  9  1  0  0  0
  9 10  1  0  0  0
 10 11  2  0  0  0
 11 12  1  0  0  0
 12 13  1  0  0  0
 13 14  1  0  0  0
 14 15  1  0  0  0
 15 16  1  0  0  0
 16 17  1  0  0  0
 17 18  1  0  0  0
 18 19  1  0  0  0
 23 24  1  0  0  0
 29 30  1  0  0  0
M  CHG 1  28  -1
M  END
> <minimizedAffinity>
-8.06826

> <CNNscore>
0.7648509145

> <CNNaffinity>
6.3025503159

> <CNN_VS>
4.8205113411

> <CNNaffinity_variance>
0.2162989378

$$$$



 37 36  0  0  0  0  0  0  0  0999 V2000
  -41.5103   58.6630   63.0466 O   0  0  0  0  0  0  0  0  0  0  0  0
  -41.1312   58.3042   64.1192 C   0  0  0  0  0  0  0  0  0  0  0  0
  -41.9619   58.3238   65.3605 C   0  0  0  0  0  0  0  0  0  0  0  0
  -42.7794   57.0592   65.5443 C   0  0  0  0  0  0  0  0  0  0  0  0
  -44.1973   57.1947   65.0325 C   0  0  0  0  0  0  0  0  0  0  0  0
  -44.8422   58.5298   65.3211 C   0  0  0  0  0  0  0  0  0  0  0  0
  -45.7402   58.5248   66.5318 C   0  0  0  0  0  0  0  0  0  0  0  0
  -47.1679   58.8561   66.1890 C   0  0  0  0  0  0  0  0  0  0  0  0
  -47.4627   58.9960   64.7249 C   0  0  0  0  0  0  0  0  0  0  0  0
  -48.1231   60.2639   64.3819 C   0  0  0  0  0  0  0  0  0  0  0  0
  -49.3773   60.4551   64.0372 C   0  0  0  0  0  0  0  0  0  0  0  0
  -50.4588   59.4438   63.9266 C   0  0  0  0  0  0  0  0  0  0  0  0
  -50.9092   59.1207   62.5166 C   0  0  0  0  0  0  0  0  0  0  0  0
  -49.9241   58.2598   61.7746 C   0  0  0  0  0  0  0  0  0  0  0  0
  -49.4833   58.8119   60.4432 C   0  0  0  0  0  0  0  0  0  0  0  0
  -49.2811   57.7316   59.4037 C   0  0  0  0  0  0  0  0  0  0  0  0
  -47.9954   56.9631   59.5307 C   0  0  0  0  0  0  0  0  0  0  0  0
  -47.2596   56.8462   58.2562 C   0  0  0  0  0  0  0  0  0  0  0  0
  -47.3011   58.0636   57.4485 C   0  0  0  0  0  0  0  0  0  0  0  0
  -39.9034   57.8422   64.3556 O   0  0  0  0  0  0  0  0  0  0  0  0
  -39.0540   58.6197   65.2285 C   0  0  0  0  0  0  0  0  0  0  0  0
  -38.4399   59.7159   64.3885 C   0  0  0  0  0  0  0  0  0  0  0  0
  -39.3391   60.8225   64.3186 O   0  0  0  0  0  0  0  0  0  0  0  0
  -39.4667   61.1919   65.2064 H   0  0  0  0  0  0  0  0  0  0  0  0
  -37.1025   60.2196   64.8743 C   0  0  0  0  0  0  0  0  0  0  0  0
  -37.2960   61.5033   65.5016 O   0  0  0  0  0  0  0  0  0  0  0  0
  -36.0744   62.5154   65.6150 P   0  0  0  0  0  0  0  0  0  0  0  0
  -36.6409   63.8792   65.6169 O   0  0  0  0  0  0  0  0  0  0  0  0
  -35.2585   62.0737   66.7632 O   0  0  0  0  0  0  0  0  0  0  0  0
  -35.7768   62.1565   67.5789 H   0  0  0  0  0  0  0  0  0  0  0  0
  -35.1786   62.3581   64.3150 O   0  0  0  0  0  0  0  0  0  0  0  0
  -33.8456   61.8060   64.4250 C   0  0  0  0  0  0  0  0  0  0  0  0
  -33.6520   60.9440   63.1982 C   0  0  0  0  0  0  0  0  0  0  0  0
  -33.5545   59.4505   63.4382 N   0  0  0  0  0  0  0  0  0  0  0  0
  -33.8243   59.1160   64.8700 C   0  0  0  0  0  0  0  0  0  0  0  0
  -32.1807   58.9761   63.0874 C   0  0  0  0  0  0  0  0  0  0  0  0
  -34.5559   58.7390   62.5836 C   0  0  0  0  0  0  0  0  0  0  0  0
 34 33  1  0  0  0
 34 35  1  0  0  0
 34 36  1  0  0  0
 34 37  1  0  0  0
 22 23  1  0  0  0
 22 25  1  0  0  0
 22 21  1  0  0  0
 27 26  1  0  0  0
 27 28  2  0  0  0
 27 31  1  0  0  0
 27 29  1  0  0  0
 25 26  1  0  0  0
 32 33  1  0  0  0
 32 31  1  0  0  0
 20 21  1  0  0  0
 20  2  1  0  0  0
  1  2  2  0  0  0
  2  3  1  0  0  0
  3  4  1  0  0  0
  4  5  1  0  0  0
  5  6  1  0  0  0
  6  7  1  0  0  0
  7  8  1  0  0  0
  8  9  1  0  0  0
  9 10  1  0  0  0
 10 11  2  0  0  0
 11 12  1  0  0  0
 12 13  1  0  0  0
 13 14  1  0  0  0
 14 15  1  0  0  0
 15 16  1  0  0  0
 16 17  1  0  0  0
 17 18  1  0  0  0
 18 19  1  0  0  0
 23 24  1  0  0  0
 29 30  1  0  0  0
M  CHG 1  28  -1
M  END
> <minimizedAffinity>
-7.56028

> <CNNscore>
0.6934521198

> <CNNaffinity>
6.5688314438

> <CNN_VS>
4.5551700592

> <CNNaffinity_variance>
0.1138955727

$$$$



 37 36  0  0  0  0  0  0  0  0999 V2000
  -41.5694   61.2981   65.2223 O   0  0  0  0  0  0  0  0  0  0  0  0
  -41.7504   60.1647   64.8973 C   0  0  0  0  0  0  0  0  0  0  0  0
  -41.8161   59.0125   65.8456 C   0  0  0  0  0  0  0  0  0  0  0  0
  -43.0782   59.0114   66.6873 C   0  0  0  0  0  0  0  0  0  0  0  0
  -44.1537   58.1009   66.1353 C   0  0  0  0  0  0  0  0  0  0  0  0
  -45.5097   58.2716   66.7789 C   0  0  0  0  0  0  0  0  0  0  0  0
  -46.6648   57.9915   65.8518 C   0  0  0  0  0  0  0  0  0  0  0  0
  -46.6453   58.8689   64.6291 C   0  0  0  0  0  0  0  0  0  0  0  0
  -47.9012   59.6495   64.3765 C   0  0  0  0  0  0  0  0  0  0  0  0
  -49.0832   59.0832   65.0422 C   0  0  0  0  0  0  0  0  0  0  0  0
  -50.2979   58.9493   64.5573 C   0  0  0  0  0  0  0  0  0  0  0  0
  -50.7866   59.3142   63.2036 C   0  0  0  0  0  0  0  0  0  0  0  0
  -50.9706   58.1580   62.2420 C   0  0  0  0  0  0  0  0  0  0  0  0
  -49.7020   57.7945   61.5205 C   0  0  0  0  0  0  0  0  0  0  0  0
  -49.5753   58.3788   60.1368 C   0  0  0  0  0  0  0  0  0  0  0  0
  -48.8624   57.4517   59.1771 C   0  0  0  0  0  0  0  0  0  0  0  0
  -47.9304   58.1322   58.2137 C   0  0  0  0  0  0  0  0  0  0  0  0
  -46.9974   57.2001   57.5506 C   0  0  0  0  0  0  0  0  0  0  0  0
  -47.5793   55.8851   57.2888 C   0  0  0  0  0  0  0  0  0  0  0  0
  -41.9111   59.7721   63.6336 O   0  0  0  0  0  0  0  0  0  0  0  0
  -41.4983   58.4297   63.2939 C   0  0  0  0  0  0  0  0  0  0  0  0
  -40.9509   58.4771   61.8859 C   0  0  0  0  0  0  0  0  0  0  0  0
  -41.2101   59.7607   61.3173 O   0  0  0  0  0  0  0  0  0  0  0  0
  -40.7359   60.4397   61.8223 H   0  0  0  0  0  0  0  0  0  0  0  0
  -39.4733   58.1929   61.7650 C   0  0  0  0  0  0  0  0  0  0  0  0
  -38.7782   58.9352   62.7871 O   0  0  0  0  0  0  0  0  0  0  0  0
  -38.2956   60.4211   62.4892 P   0  0  0  0  0  0  0  0  0  0  0  0
  -38.1420   60.5409   61.0252 O   0  0  0  0  0  0  0  0  0  0  0  0
  -39.2303   61.3228   63.1906 O   0  0  0  0  0  0  0  0  0  0  0  0
  -40.1178   61.2275   62.8109 H   0  0  0  0  0  0  0  0  0  0  0  0
  -36.8671   60.6198   63.1503 O   0  0  0  0  0  0  0  0  0  0  0  0
  -36.4630   61.9332   63.6035 C   0  0  0  0  0  0  0  0  0  0  0  0
  -36.0035   61.7548   65.0327 C   0  0  0  0  0  0  0  0  0  0  0  0
  -35.3536   62.9604   65.6822 N   0  0  0  0  0  0  0  0  0  0  0  0
  -33.9793   62.6336   66.1715 C   0  0  0  0  0  0  0  0  0  0  0  0
  -36.1804   63.4089   66.8443 C   0  0  0  0  0  0  0  0  0  0  0  0
  -35.2552   64.0737   64.6871 C   0  0  0  0  0  0  0  0  0  0  0  0
 34 33  1  0  0  0
 34 35  1  0  0  0
 34 36  1  0  0  0
 34 37  1  0  0  0
 22 23  1  0  0  0
 22 25  1  0  0  0
 22 21  1  0  0  0
 27 26  1  0  0  0
 27 28  2  0  0  0
 27 31  1  0  0  0
 27 29  1  0  0  0
 25 26  1  0  0  0
 32 33  1  0  0  0
 32 31  1  0  0  0
 20 21  1  0  0  0
 20  2  1  0  0  0
  1  2  2  0  0  0
  2  3  1  0  0  0
  3  4  1  0  0  0
  4  5  1  0  0  0
  5  6  1  0  0  0
  6  7  1  0  0  0
  7  8  1  0  0  0
  8  9  1  0  0  0
  9 10  1  0  0  0
 10 11  2  0  0  0
 11 12  1  0  0  0
 12 13  1  0  0  0
 13 14  1  0  0  0
 14 15  1  0  0  0
 15 16  1  0  0  0
 16 17  1  0  0  0
 17 18  1  0  0  0
 18 19  1  0  0  0
 23 24  1  0  0  0
 29 30  1  0  0  0
M  CHG 1  28  -1
M  END
> <minimizedAffinity>
-7.78582

> <CNNscore>
0.6870685816

> <CNNaffinity>
6.7022948265

> <CNN_VS>
4.6049361229

> <CNNaffinity_variance>
0.3429165483

$$$$



 37 36  0  0  0  0  0  0  0  0999 V2000
  -41.1031   61.6387   66.2895 O   0  0  0  0  0  0  0  0  0  0  0  0
  -41.2247   60.4575   66.1757 C   0  0  0  0  0  0  0  0  0  0  0  0
  -42.2874   59.6480   66.8441 C   0  0  0  0  0  0  0  0  0  0  0  0
  -42.2901   58.1967   66.4022 C   0  0  0  0  0  0  0  0  0  0  0  0
  -43.6758   57.5885   66.3856 C   0  0  0  0  0  0  0  0  0  0  0  0
  -44.7170   58.4220   65.6763 C   0  0  0  0  0  0  0  0  0  0  0  0
  -46.1360   58.0141   65.9801 C   0  0  0  0  0  0  0  0  0  0  0  0
  -46.8471   59.0151   66.8506 C   0  0  0  0  0  0  0  0  0  0  0  0
  -48.1657   59.5022   66.3267 C   0  0  0  0  0  0  0  0  0  0  0  0
  -49.1051   58.4160   66.0124 C   0  0  0  0  0  0  0  0  0  0  0  0
  -50.2833   58.5072   65.4360 C   0  0  0  0  0  0  0  0  0  0  0  0
  -50.9618   59.7278   64.9320 C   0  0  0  0  0  0  0  0  0  0  0  0
  -51.4771   59.6485   63.5095 C   0  0  0  0  0  0  0  0  0  0  0  0
  -50.3721   59.5215   62.4972 C   0  0  0  0  0  0  0  0  0  0  0  0
  -50.4787   58.3176   61.5966 C   0  0  0  0  0  0  0  0  0  0  0  0
  -49.1350   57.8649   61.0693 C   0  0  0  0  0  0  0  0  0  0  0  0
  -48.8084   58.3366   59.6798 C   0  0  0  0  0  0  0  0  0  0  0  0
  -48.0331   57.3526   58.8989 C   0  0  0  0  0  0  0  0  0  0  0  0
  -47.6141   57.8507   57.5903 C   0  0  0  0  0  0  0  0  0  0  0  0
  -40.4170   59.6963   65.4375 O   0  0  0  0  0  0  0  0  0  0  0  0
  -39.0649   59.5040   65.9098 C   0  0  0  0  0  0  0  0  0  0  0  0
  -38.2319   60.6290   65.3399 C   0  0  0  0  0  0  0  0  0  0  0  0
  -37.8601   61.5241   66.3881 O   0  0  0  0  0  0  0  0  0  0  0  0
  -37.2976   61.0584   67.0266 H   0  0  0  0  0  0  0  0  0  0  0  0
  -36.9791   60.1942   64.6189 C   0  0  0  0  0  0  0  0  0  0  0  0
  -37.0044   58.7594   64.4793 O   0  0  0  0  0  0  0  0  0  0  0  0
  -36.2237   58.0724   63.2761 P   0  0  0  0  0  0  0  0  0  0  0  0
  -35.7537   59.1564   62.3900 O   0  0  0  0  0  0  0  0  0  0  0  0
  -35.2356   57.1545   63.8763 O   0  0  0  0  0  0  0  0  0  0  0  0
  -34.5869   57.6656   64.3850 H   0  0  0  0  0  0  0  0  0  0  0  0
  -37.2541   57.1839   62.4602 O   0  0  0  0  0  0  0  0  0  0  0  0
  -38.2176   57.8209   61.5885 C   0  0  0  0  0  0  0  0  0  0  0  0
  -39.5732   57.5456   62.1985 C   0  0  0  0  0  0  0  0  0  0  0  0
  -40.7708   58.0734   61.4339 N   0  0  0  0  0  0  0  0  0  0  0  0
  -41.4941   56.9676   60.7347 C   0  0  0  0  0  0  0  0  0  0  0  0
  -40.3147   59.0662   60.4132 C   0  0  0  0  0  0  0  0  0  0  0  0
  -41.7173   58.7397   62.3824 C   0  0  0  0  0  0  0  0  0  0  0  0
 34 33  1  0  0  0
 34 35  1  0  0  0
 34 36  1  0  0  0
 34 37  1  0  0  0
 22 23  1  0  0  0
 22 25  1  0  0  0
 22 21  1  0  0  0
 27 26  1  0  0  0
 27 28  2  0  0  0
 27 31  1  0  0  0
 27 29  1  0  0  0
 25 26  1  0  0  0
 32 33  1  0  0  0
 32 31  1  0  0  0
 20 21  1  0  0  0
 20  2  1  0  0  0
  1  2  2  0  0  0
  2  3  1  0  0  0
  3  4  1  0  0  0
  4  5  1  0  0  0
  5  6  1  0  0  0
  6  7  1  0  0  0
  7  8  1  0  0  0
  8  9  1  0  0  0
  9 10  1  0  0  0
 10 11  2  0  0  0
 11 12  1  0  0  0
 12 13  1  0  0  0
 13 14  1  0  0  0
 14 15  1  0  0  0
 15 16  1  0  0  0
 16 17  1  0  0  0
 17 18  1  0  0  0
 18 19  1  0  0  0
 23 24  1  0  0  0
 29 30  1  0  0  0
M  CHG 1  28  -1
M  END
> <minimizedAffinity>
-8.08258

> <CNNscore>
0.6694170237

> <CNNaffinity>
7.0314531326

> <CNN_VS>
4.7069745064

> <CNNaffinity_variance>
0.1370058060

$$$$



 37 36  0  0  0  0  0  0  0  0999 V2000
  -42.8086   58.4391   62.8650 O   0  0  0  0  0  0  0  0  0  0  0  0
  -41.7343   58.0401   63.1960 C   0  0  0  0  0  0  0  0  0  0  0  0
  -41.5011   57.0305   64.2719 C   0  0  0  0  0  0  0  0  0  0  0  0
  -42.7794   56.6030   64.9680 C   0  0  0  0  0  0  0  0  0  0  0  0
  -42.9854   57.2945   66.2984 C   0  0  0  0  0  0  0  0  0  0  0  0
  -44.0606   58.3555   66.2926 C   0  0  0  0  0  0  0  0  0  0  0  0
  -45.2595   58.0051   65.4487 C   0  0  0  0  0  0  0  0  0  0  0  0
  -46.4970   58.7499   65.8721 C   0  0  0  0  0  0  0  0  0  0  0  0
  -47.6344   58.7170   64.8946 C   0  0  0  0  0  0  0  0  0  0  0  0
  -48.1810   60.0476   64.5915 C   0  0  0  0  0  0  0  0  0  0  0  0
  -49.4028   60.3533   64.2143 C   0  0  0  0  0  0  0  0  0  0  0  0
  -50.5546   59.4372   64.0183 C   0  0  0  0  0  0  0  0  0  0  0  0
  -50.7647   58.9462   62.6005 C   0  0  0  0  0  0  0  0  0  0  0  0
  -49.8406   59.6056   61.6140 C   0  0  0  0  0  0  0  0  0  0  0  0
  -49.7820   58.9389   60.2635 C   0  0  0  0  0  0  0  0  0  0  0  0
  -48.6942   57.8909   60.1790 C   0  0  0  0  0  0  0  0  0  0  0  0
  -48.7639   57.0020   58.9688 C   0  0  0  0  0  0  0  0  0  0  0  0
  -47.5340   56.2142   58.7544 C   0  0  0  0  0  0  0  0  0  0  0  0
  -47.2492   55.9552   57.3444 C   0  0  0  0  0  0  0  0  0  0  0  0
  -40.5898   58.4519   62.6507 O   0  0  0  0  0  0  0  0  0  0  0  0
  -39.4538   58.6177   63.5282 C   0  0  0  0  0  0  0  0  0  0  0  0
  -39.0358   60.0677   63.4433 C   0  0  0  0  0  0  0  0  0  0  0  0
  -40.0815   60.8952   63.9530 O   0  0  0  0  0  0  0  0  0  0  0  0
  -40.2184   60.7007   64.8934 H   0  0  0  0  0  0  0  0  0  0  0  0
  -37.7601   60.4086   64.1746 C   0  0  0  0  0  0  0  0  0  0  0  0
  -37.3260   61.7177   63.7542 O   0  0  0  0  0  0  0  0  0  0  0  0
  -35.9523   62.3039   64.3007 P   0  0  0  0  0  0  0  0  0  0  0  0
  -36.2351   63.6573   64.8196 O   0  0  0  0  0  0  0  0  0  0  0  0
  -35.3861   61.2885   65.2104 O   0  0  0  0  0  0  0  0  0  0  0  0
  -35.9736   61.1747   65.9737 H   0  0  0  0  0  0  0  0  0  0  0  0
  -34.9529   62.4466   63.0769 O   0  0  0  0  0  0  0  0  0  0  0  0
  -33.5352   62.2407   63.2807 C   0  0  0  0  0  0  0  0  0  0  0  0
  -32.8389   63.1370   62.2821 C   0  0  0  0  0  0  0  0  0  0  0  0
  -31.3780   62.8334   62.0150 N   0  0  0  0  0  0  0  0  0  0  0  0
  -30.8294   63.7225   60.9457 C   0  0  0  0  0  0  0  0  0  0  0  0
  -31.2350   61.4119   61.5743 C   0  0  0  0  0  0  0  0  0  0  0  0
  -30.5851   63.0446   63.2664 C   0  0  0  0  0  0  0  0  0  0  0  0
 34 33  1  0  0  0
 34 35  1  0  0  0
 34 36  1  0  0  0
 34 37  1  0  0  0
 22 23  1  0  0  0
 22 25  1  0  0  0
 22 21  1  0  0  0
 27 26  1  0  0  0
 27 28  2  0  0  0
 27 31  1  0  0  0
 27 29  1  0  0  0
 25 26  1  0  0  0
 32 33  1  0  0  0
 32 31  1  0  0  0
 20 21  1  0  0  0
 20  2  1  0  0  0
  1  2  2  0  0  0
  2  3  1  0  0  0
  3  4  1  0  0  0
  4  5  1  0  0  0
  5  6  1  0  0  0
  6  7  1  0  0  0
  7  8  1  0  0  0
  8  9  1  0  0  0
  9 10  1  0  0  0
 10 11  2  0  0  0
 11 12  1  0  0  0
 12 13  1  0  0  0
 13 14  1  0  0  0
 14 15  1  0  0  0
 15 16  1  0  0  0
 16 17  1  0  0  0
 17 18  1  0  0  0
 18 19  1  0  0  0
 23 24  1  0  0  0
 29 30  1  0  0  0
M  CHG 1  28  -1
M  END
> <minimizedAffinity>
-7.53669

> <CNNscore>
0.6668683887

> <CNNaffinity>
6.2486219406

> <CNN_VS>
4.1670084000

> <CNNaffinity_variance>
0.2309577167

$$$$



 37 36  0  0  0  0  0  0  0  0999 V2000
  -40.8205   58.4131   65.5004 O   0  0  0  0  0  0  0  0  0  0  0  0
  -40.9085   58.4592   64.3117 C   0  0  0  0  0  0  0  0  0  0  0  0
  -42.1140   58.0405   63.5354 C   0  0  0  0  0  0  0  0  0  0  0  0
  -43.3754   58.7644   63.9670 C   0  0  0  0  0  0  0  0  0  0  0  0
  -44.2005   57.9710   64.9571 C   0  0  0  0  0  0  0  0  0  0  0  0
  -45.6019   58.4947   65.1659 C   0  0  0  0  0  0  0  0  0  0  0  0
  -46.4354   57.6530   66.0982 C   0  0  0  0  0  0  0  0  0  0  0  0
  -47.2572   58.4866   67.0443 C   0  0  0  0  0  0  0  0  0  0  0  0
  -48.1469   59.5064   66.3973 C   0  0  0  0  0  0  0  0  0  0  0  0
  -49.4295   58.9536   65.9384 C   0  0  0  0  0  0  0  0  0  0  0  0
  -49.9118   58.9371   64.7154 C   0  0  0  0  0  0  0  0  0  0  0  0
  -49.2769   59.4520   63.4759 C   0  0  0  0  0  0  0  0  0  0  0  0
  -50.1617   59.4661   62.2462 C   0  0  0  0  0  0  0  0  0  0  0  0
  -50.8935   58.1681   62.0416 C   0  0  0  0  0  0  0  0  0  0  0  0
  -50.3916   57.3375   60.8884 C   0  0  0  0  0  0  0  0  0  0  0  0
  -48.9839   57.7065   60.4750 C   0  0  0  0  0  0  0  0  0  0  0  0
  -48.8215   58.0557   59.0219 C   0  0  0  0  0  0  0  0  0  0  0  0
  -47.7965   57.2416   58.3394 C   0  0  0  0  0  0  0  0  0  0  0  0
  -47.0540   57.9795   57.3194 C   0  0  0  0  0  0  0  0  0  0  0  0
  -39.9316   58.8865   63.5117 O   0  0  0  0  0  0  0  0  0  0  0  0
  -38.6146   59.0358   64.0872 C   0  0  0  0  0  0  0  0  0  0  0  0
  -37.8335   59.9536   63.1751 C   0  0  0  0  0  0  0  0  0  0  0  0
  -38.3630   61.2764   63.2639 O   0  0  0  0  0  0  0  0  0  0  0  0
  -38.2423   61.6130   64.1656 H   0  0  0  0  0  0  0  0  0  0  0  0
  -36.3504   60.0154   63.4489 C   0  0  0  0  0  0  0  0  0  0  0  0
  -35.9229   61.3891   63.3526 O   0  0  0  0  0  0  0  0  0  0  0  0
  -34.4657   61.7954   63.8431 P   0  0  0  0  0  0  0  0  0  0  0  0
  -33.7830   60.5505   64.2498 O   0  0  0  0  0  0  0  0  0  0  0  0
  -33.8720   62.6261   62.7771 O   0  0  0  0  0  0  0  0  0  0  0  0
  -33.7663   62.0935   61.9732 H   0  0  0  0  0  0  0  0  0  0  0  0
  -34.6139   62.7156   65.1270 O   0  0  0  0  0  0  0  0  0  0  0  0
  -33.4473   63.0283   65.9239 C   0  0  0  0  0  0  0  0  0  0  0  0
  -33.3351   64.5360   65.9198 C   0  0  0  0  0  0  0  0  0  0  0  0
  -32.0934   65.1130   65.2695 N   0  0  0  0  0  0  0  0  0  0  0  0
  -31.0649   64.0533   65.0369 C   0  0  0  0  0  0  0  0  0  0  0  0
  -31.5056   66.1625   66.1573 C   0  0  0  0  0  0  0  0  0  0  0  0
  -32.4554   65.7257   63.9531 C   0  0  0  0  0  0  0  0  0  0  0  0
 34 33  1  0  0  0
 34 35  1  0  0  0
 34 36  1  0  0  0
 34 37  1  0  0  0
 22 23  1  0  0  0
 22 25  1  0  0  0
 22 21  1  0  0  0
 27 26  1  0  0  0
 27 28  2  0  0  0
 27 31  1  0  0  0
 27 29  1  0  0  0
 25 26  1  0  0  0
 32 33  1  0  0  0
 32 31  1  0  0  0
 20 21  1  0  0  0
 20  2  1  0  0  0
  1  2  2  0  0  0
  2  3  1  0  0  0
  3  4  1  0  0  0
  4  5  1  0  0  0
  5  6  1  0  0  0
  6  7  1  0  0  0
  7  8  1  0  0  0
  8  9  1  0  0  0
  9 10  1  0  0  0
 10 11  2  0  0  0
 11 12  1  0  0  0
 12 13  1  0  0  0
 13 14  1  0  0  0
 14 15  1  0  0  0
 15 16  1  0  0  0
 16 17  1  0  0  0
 17 18  1  0  0  0
 18 19  1  0  0  0
 23 24  1  0  0  0
 29 30  1  0  0  0
M  CHG 1  28  -1
M  END
> <minimizedAffinity>
-7.62065

> <CNNscore>
0.6589328051

> <CNNaffinity>
6.2229437828

> <CNN_VS>
4.1005020142

> <CNNaffinity_variance>
0.5216790438

$$$$



 37 36  0  0  0  0  0  0  0  0999 V2000
  -42.3927   59.8779   67.4315 O   0  0  0  0  0  0  0  0  0  0  0  0
  -42.1938   58.9647   66.6902 C   0  0  0  0  0  0  0  0  0  0  0  0
  -43.0298   57.7285   66.6270 C   0  0  0  0  0  0  0  0  0  0  0  0
  -43.6585   57.5095   65.2638 C   0  0  0  0  0  0  0  0  0  0  0  0
  -45.1118   57.9284   65.2111 C   0  0  0  0  0  0  0  0  0  0  0  0
  -45.6952   58.3344   66.5440 C   0  0  0  0  0  0  0  0  0  0  0  0
  -46.9216   57.5513   66.9374 C   0  0  0  0  0  0  0  0  0  0  0  0
  -48.1472   57.9844   66.1785 C   0  0  0  0  0  0  0  0  0  0  0  0
  -48.5751   59.4045   66.4030 C   0  0  0  0  0  0  0  0  0  0  0  0
  -48.5883   60.2105   65.1737 C   0  0  0  0  0  0  0  0  0  0  0  0
  -49.5119   60.2442   64.2386 C   0  0  0  0  0  0  0  0  0  0  0  0
  -50.7924   59.4943   64.1918 C   0  0  0  0  0  0  0  0  0  0  0  0
  -51.2240   59.0238   62.8179 C   0  0  0  0  0  0  0  0  0  0  0  0
  -50.0781   58.9333   61.8479 C   0  0  0  0  0  0  0  0  0  0  0  0
  -50.0281   57.6553   61.0503 C   0  0  0  0  0  0  0  0  0  0  0  0
  -49.8712   57.9020   59.5659 C   0  0  0  0  0  0  0  0  0  0  0  0
  -48.4523   58.0676   59.0979 C   0  0  0  0  0  0  0  0  0  0  0  0
  -48.1062   57.1839   57.9672 C   0  0  0  0  0  0  0  0  0  0  0  0
  -47.1779   57.7938   57.0172 C   0  0  0  0  0  0  0  0  0  0  0  0
  -41.1861   58.9228   65.8187 O   0  0  0  0  0  0  0  0  0  0  0  0
  -40.7264   60.1775   65.2687 C   0  0  0  0  0  0  0  0  0  0  0  0
  -41.4449   60.3750   63.9538 C   0  0  0  0  0  0  0  0  0  0  0  0
  -41.4714   61.7652   63.6299 O   0  0  0  0  0  0  0  0  0  0  0  0
  -40.5645   62.0845   63.5012 H   0  0  0  0  0  0  0  0  0  0  0  0
  -40.8544   59.6253   62.7843 C   0  0  0  0  0  0  0  0  0  0  0  0
  -41.4840   58.3307   62.7040 O   0  0  0  0  0  0  0  0  0  0  0  0
  -40.8607   57.2101   61.7631 P   0  0  0  0  0  0  0  0  0  0  0  0
  -40.7868   55.9685   62.5593 O   0  0  0  0  0  0  0  0  0  0  0  0
  -41.6452   57.2171   60.5127 O   0  0  0  0  0  0  0  0  0  0  0  0
  -42.5597   56.9561   60.7032 H   0  0  0  0  0  0  0  0  0  0  0  0
  -39.3806   57.6430   61.3907 O   0  0  0  0  0  0  0  0  0  0  0  0
  -38.2707   57.1578   62.1822 C   0  0  0  0  0  0  0  0  0  0  0  0
  -37.1525   58.1555   61.9827 C   0  0  0  0  0  0  0  0  0  0  0  0
  -36.4527   58.6365   63.2383 N   0  0  0  0  0  0  0  0  0  0  0  0
  -37.0079   59.9467   63.6965 C   0  0  0  0  0  0  0  0  0  0  0  0
  -34.9929   58.8060   62.9636 C   0  0  0  0  0  0  0  0  0  0  0  0
  -36.6361   57.6306   64.3310 C   0  0  0  0  0  0  0  0  0  0  0  0
 34 33  1  0  0  0
 34 35  1  0  0  0
 34 36  1  0  0  0
 34 37  1  0  0  0
 22 23  1  0  0  0
 22 25  1  0  0  0
 22 21  1  0  0  0
 27 26  1  0  0  0
 27 28  2  0  0  0
 27 31  1  0  0  0
 27 29  1  0  0  0
 25 26  1  0  0  0
 32 33  1  0  0  0
 32 31  1  0  0  0
 20 21  1  0  0  0
 20  2  1  0  0  0
  1  2  2  0  0  0
  2  3  1  0  0  0
  3  4  1  0  0  0
  4  5  1  0  0  0
  5  6  1  0  0  0
  6  7  1  0  0  0
  7  8  1  0  0  0
  8  9  1  0  0  0
  9 10  1  0  0  0
 10 11  2  0  0  0
 11 12  1  0  0  0
 12 13  1  0  0  0
 13 14  1  0  0  0
 14 15  1  0  0  0
 15 16  1  0  0  0
 16 17  1  0  0  0
 17 18  1  0  0  0
 18 19  1  0  0  0
 23 24  1  0  0  0
 29 30  1  0  0  0
M  CHG 1  28  -1
M  END
> <minimizedAffinity>
-7.98541

> <CNNscore>
0.6373636127

> <CNNaffinity>
6.8898644447

> <CNN_VS>
4.3913488388

> <CNNaffinity_variance>
0.3840018809

$$$$



 37 36  0  0  0  0  0  0  0  0999 V2000
  -42.5259   59.8963   67.1767 O   0  0  0  0  0  0  0  0  0  0  0  0
  -42.5494   58.9503   66.4504 C   0  0  0  0  0  0  0  0  0  0  0  0
  -43.4223   57.7542   66.6466 C   0  0  0  0  0  0  0  0  0  0  0  0
  -44.4607   57.5947   65.5522 C   0  0  0  0  0  0  0  0  0  0  0  0
  -45.8096   58.1662   65.9321 C   0  0  0  0  0  0  0  0  0  0  0  0
  -46.6328   58.6575   64.7647 C   0  0  0  0  0  0  0  0  0  0  0  0
  -47.7425   59.6004   65.1543 C   0  0  0  0  0  0  0  0  0  0  0  0
  -48.6524   59.0149   66.2005 C   0  0  0  0  0  0  0  0  0  0  0  0
  -50.0074   58.5945   65.7132 C   0  0  0  0  0  0  0  0  0  0  0  0
  -50.9027   59.7261   65.4322 C   0  0  0  0  0  0  0  0  0  0  0  0
  -51.4635   60.0489   64.2877 C   0  0  0  0  0  0  0  0  0  0  0  0
  -51.3569   59.3417   62.9865 C   0  0  0  0  0  0  0  0  0  0  0  0
  -50.0417   59.5150   62.2548 C   0  0  0  0  0  0  0  0  0  0  0  0
  -49.4085   58.2036   61.8788 C   0  0  0  0  0  0  0  0  0  0  0  0
  -50.0101   57.5384   60.6674 C   0  0  0  0  0  0  0  0  0  0  0  0
  -49.2610   57.8626   59.3937 C   0  0  0  0  0  0  0  0  0  0  0  0
  -47.8990   57.2360   59.2831 C   0  0  0  0  0  0  0  0  0  0  0  0
  -47.5352   56.8762   57.8984 C   0  0  0  0  0  0  0  0  0  0  0  0
  -47.0805   58.0151   57.1033 C   0  0  0  0  0  0  0  0  0  0  0  0
  -41.7877   58.8310   65.3630 O   0  0  0  0  0  0  0  0  0  0  0  0
  -41.8983   59.8596   64.3542 C   0  0  0  0  0  0  0  0  0  0  0  0
  -41.5960   59.2099   63.0235 C   0  0  0  0  0  0  0  0  0  0  0  0
  -42.6758   58.3508   62.6570 O   0  0  0  0  0  0  0  0  0  0  0  0
  -43.4803   58.8780   62.5319 H   0  0  0  0  0  0  0  0  0  0  0  0
  -41.3452   60.1702   61.8861 C   0  0  0  0  0  0  0  0  0  0  0  0
  -39.9225   60.2668   61.6725 O   0  0  0  0  0  0  0  0  0  0  0  0
  -39.2171   59.3000   60.6251 P   0  0  0  0  0  0  0  0  0  0  0  0
  -40.2904   58.5924   59.8981 O   0  0  0  0  0  0  0  0  0  0  0  0
  -38.2548   60.1221   59.8654 O   0  0  0  0  0  0  0  0  0  0  0  0
  -38.7346   60.7949   59.3574 H   0  0  0  0  0  0  0  0  0  0  0  0
  -38.3784   58.2223   61.4326 O   0  0  0  0  0  0  0  0  0  0  0  0
  -36.9325   58.2700   61.4038 C   0  0  0  0  0  0  0  0  0  0  0  0
  -36.5205   59.0704   62.6183 C   0  0  0  0  0  0  0  0  0  0  0  0
  -35.5950   58.3741   63.5963 N   0  0  0  0  0  0  0  0  0  0  0  0
  -34.5017   57.6483   62.8802 C   0  0  0  0  0  0  0  0  0  0  0  0
  -36.3735   57.3870   64.4055 C   0  0  0  0  0  0  0  0  0  0  0  0
  -34.9789   59.3859   64.5106 C   0  0  0  0  0  0  0  0  0  0  0  0
 34 33  1  0  0  0
 34 35  1  0  0  0
 34 36  1  0  0  0
 34 37  1  0  0  0
 22 23  1  0  0  0
 22 25  1  0  0  0
 22 21  1  0  0  0
 27 26  1  0  0  0
 27 28  2  0  0  0
 27 31  1  0  0  0
 27 29  1  0  0  0
 25 26  1  0  0  0
 32 33  1  0  0  0
 32 31  1  0  0  0
 20 21  1  0  0  0
 20  2  1  0  0  0
  1  2  2  0  0  0
  2  3  1  0  0  0
  3  4  1  0  0  0
  4  5  1  0  0  0
  5  6  1  0  0  0
  6  7  1  0  0  0
  7  8  1  0  0  0
  8  9  1  0  0  0
  9 10  1  0  0  0
 10 11  2  0  0  0
 11 12  1  0  0  0
 12 13  1  0  0  0
 13 14  1  0  0  0
 14 15  1  0  0  0
 15 16  1  0  0  0
 16 17  1  0  0  0
 17 18  1  0  0  0
 18 19  1  0  0  0
 23 24  1  0  0  0
 29 30  1  0  0  0
M  CHG 1  28  -1
M  END
> <minimizedAffinity>
-8.07095

> <CNNscore>
0.6207718253

> <CNNaffinity>
6.6400022507

> <CNN_VS>
4.1219263077

> <CNNaffinity_variance>
0.2666439414

$$$$
