


 17 16  0  0  0  0  0  0  0  0999 V2000
  -43.8200   56.9366   64.4684 C   0  0  0  0  0  0  0  0  0  0  0  0
  -44.5114   57.7029   63.3768 C   0  0  0  0  0  0  0  0  0  0  0  0
  -42.6324   56.3672   64.2192 C   0  0  0  0  0  0  0  0  0  0  0  0
  -44.4471   56.8080   65.8406 C   0  0  0  0  0  0  0  0  0  0  0  0
  -45.9587   56.6384   65.7298 C   0  0  0  0  0  0  0  0  0  0  0  0
  -48.2964   57.8204   64.5691 C   0  0  0  0  0  0  0  0  0  0  0  0
  -47.7670   58.3273   65.8757 C   0  0  0  0  0  0  0  0  0  0  0  0
  -48.4654   59.4574   66.5703 C   0  0  0  0  0  0  0  0  0  0  0  0
  -46.6717   57.7777   66.4211 C   0  0  0  0  0  0  0  0  0  0  0  0
  -41.9986   56.4969   62.8532 C   0  0  0  0  0  0  0  0  0  0  0  0
  -40.5950   55.9038   62.8666 C   0  0  0  0  0  0  0  0  0  0  0  0
  -39.6492   56.7910   62.0865 C   0  0  0  0  0  0  0  0  0  0  0  0
  -38.1784   56.7290   62.3591 C   0  0  0  0  0  0  0  0  0  0  0  0
  -40.1185   57.6240   61.1459 C   0  0  0  0  0  0  0  0  0  0  0  0
  -39.5526   59.8883   60.5263 O   0  0  0  0  0  0  0  0  0  0  0  0
  -39.1888   58.5142   60.3532 C   0  0  0  0  0  0  0  0  0  0  0  0
  -38.9498   60.4494   60.0137 H   0  0  0  0  0  0  0  0  0  0  0  0
  6  7  1  0  0  0
 15 16  1  0  0  0
  7  8  1  0  0  0
  7  9  2  0  0  0
  9  5  1  0  0  0
  5  4  1  0  0  0
  4  1  1  0  0  0
  1  2  1  0  0  0
  1  3  2  0  0  0
  3 10  1  0  0  0
 10 11  1  0  0  0
 11 12  1  0  0  0
 12 13  1  0  0  0
 12 14  2  0  0  0
 14 16  1  0  0  0
 15 17  1  0  0  0
M  END
> <minimizedAffinity>
-6.11165

> <minimizedRMSD>
0.77343

> <CNNscore>
0.6342123747

> <CNNaffinity>
5.8860721588

> <CNN_VS>
3.7330198288

> <CNNaffinity_variance>
0.5275436640

$$$$
