


 37 36  0  0  0  0  0  0  0  0999 V2000
  -42.6554   60.2396   66.8422 O   0  0  0  0  0  0  0  0  0  0  0  0
  -42.5460   59.4482   65.9386 C   0  0  0  0  0  0  0  0  0  0  0  0
  -43.4692   58.2979   65.6776 C   0  0  0  0  0  0  0  0  0  0  0  0
  -44.6183   58.6520   64.7411 C   0  0  0  0  0  0  0  0  0  0  0  0
  -45.8567   57.7902   64.9176 C   0  0  0  0  0  0  0  0  0  0  0  0
  -47.1342   58.5945   65.0823 C   0  0  0  0  0  0  0  0  0  0  0  0
  -48.3719   57.8391   64.6293 C   0  0  0  0  0  0  0  0  0  0  0  0
  -49.6357   58.3827   65.2578 C   0  0  0  0  0  0  0  0  0  0  0  0
  -49.9729   59.8091   64.8737 C   0  0  0  0  0  0  0  0  0  0  0  0
  -51.1500   59.9321   63.9840 C   0  0  0  0  0  0  0  0  0  0  0  0
  -51.1212   60.0890   62.6766 C   0  0  0  0  0  0  0  0  0  0  0  0
  -49.9127   60.1369   61.7993 C   0  0  0  0  0  0  0  0  0  0  0  0
  -49.5087   58.7220   61.3816 C   0  0  0  0  0  0  0  0  0  0  0  0
  -50.6516   57.8237   60.9316 C   0  0  0  0  0  0  0  0  0  0  0  0
  -50.2284   56.5851   60.1512 C   0  0  0  0  0  0  0  0  0  0  0  0
  -49.1226   56.8532   59.1356 C   0  0  0  0  0  0  0  0  0  0  0  0
  -47.8771   56.0076   59.3488 C   0  0  0  0  0  0  0  0  0  0  0  0
  -46.8659   56.0393   58.2127 C   0  0  0  0  0  0  0  0  0  0  0  0
  -47.0171   57.2439   57.3354 C   0  0  0  0  0  0  0  0  0  0  0  0
  -41.5789   59.4888   65.0174 O   0  0  0  0  0  0  0  0  0  0  0  0
  -41.3342   60.7474   64.3519 C   0  0  0  0  0  0  0  0  0  0  0  0
  -40.1648   61.4870   64.9666 C   0  0  0  0  0  0  0  0  0  0  0  0
  -40.6132   62.4520   65.9279 O   0  0  0  0  0  0  0  0  0  0  0  0
  -41.0601   61.9969   66.6587 H   0  0  0  0  0  0  0  0  0  0  0  0
  -39.1669   60.5570   65.6159 C   0  0  0  0  0  0  0  0  0  0  0  0
  -38.0500   61.2802   66.1876 O   0  0  0  0  0  0  0  0  0  0  0  0
  -36.6988   61.8631   65.5469 P   0  0  0  0  0  0  0  0  0  0  0  0
  -35.9757   62.6785   66.6177 O   0  0  0  0  0  0  0  0  0  0  0  0
  -37.0547   62.7646   64.4294 O   0  0  0  0  0  0  0  0  0  0  0  0
  -37.6404   63.4664   64.7541 H   0  0  0  0  0  0  0  0  0  0  0  0
  -35.7042   60.6559   65.0383 O   0  0  0  0  0  0  0  0  0  0  0  0
  -36.1110   59.3029   64.6965 C   0  0  0  0  0  0  0  0  0  0  0  0
  -35.9811   59.0792   63.2102 C   0  0  0  0  0  0  0  0  0  0  0  0
  -37.2627   58.7757   62.4566 N   0  0  0  0  0  0  0  0  0  0  0  0
  -36.9632   58.0481   61.1853 C   0  0  0  0  0  0  0  0  0  0  0  0
  -37.9410   60.0655   62.1296 C   0  0  0  0  0  0  0  0  0  0  0  0
  -38.1788   57.9303   63.2948 C   0  0  0  0  0  0  0  0  0  0  0  0
 34 33  1  0  0  0
 34 35  1  0  0  0
 34 36  1  0  0  0
 34 37  1  0  0  0
 22 23  1  0  0  0
 22 25  1  0  0  0
 22 21  1  0  0  0
 27 26  1  0  0  0
 27 28  2  0  0  0
 27 31  1  0  0  0
 27 29  1  0  0  0
 25 26  1  0  0  0
 32 33  1  0  0  0
 32 31  1  0  0  0
 20 21  1  0  0  0
 20  2  1  0  0  0
  1  2  2  0  0  0
  2  3  1  0  0  0
  3  4  1  0  0  0
  4  5  1  0  0  0
  5  6  1  0  0  0
  6  7  1  0  0  0
  7  8  1  0  0  0
  8  9  1  0  0  0
  9 10  1  0  0  0
 10 11  2  0  0  0
 11 12  1  0  0  0
 12 13  1  0  0  0
 13 14  1  0  0  0
 14 15  1  0  0  0
 15 16  1  0  0  0
 16 17  1  0  0  0
 17 18  1  0  0  0
 18 19  1  0  0  0
 23 24  1  0  0  0
 29 30  1  0  0  0
M  CHG 1  28  -1
M  END
> <minimizedAffinity>
-8.24860

> <CNNscore>
0.8565866947

> <CNNaffinity>
7.0073862076

> <CNN_VS>
6.0024337769

> <CNNaffinity_variance>
0.4154856205

$$$$



 37 36  0  0  0  0  0  0  0  0999 V2000
  -42.2502   60.4438   66.9594 O   0  0  0  0  0  0  0  0  0  0  0  0
  -42.7151   60.0858   65.9056 C   0  0  0  0  0  0  0  0  0  0  0  0
  -44.1537   59.7454   65.6641 C   0  0  0  0  0  0  0  0  0  0  0  0
  -44.3404   58.5837   64.6955 C   0  0  0  0  0  0  0  0  0  0  0  0
  -45.5461   57.7090   64.9935 C   0  0  0  0  0  0  0  0  0  0  0  0
  -46.3834   58.2100   66.1571 C   0  0  0  0  0  0  0  0  0  0  0  0
  -47.7039   58.8187   65.7174 C   0  0  0  0  0  0  0  0  0  0  0  0
  -48.6327   57.7917   65.1089 C   0  0  0  0  0  0  0  0  0  0  0  0
  -50.1002   58.1681   65.1357 C   0  0  0  0  0  0  0  0  0  0  0  0
  -50.3532   59.6201   64.9942 C   0  0  0  0  0  0  0  0  0  0  0  0
  -50.8774   60.2173   63.9438 C   0  0  0  0  0  0  0  0  0  0  0  0
  -51.3677   59.5714   62.6889 C   0  0  0  0  0  0  0  0  0  0  0  0
  -50.2147   59.4030   61.6980 C   0  0  0  0  0  0  0  0  0  0  0  0
  -49.6770   57.9864   61.5578 C   0  0  0  0  0  0  0  0  0  0  0  0
  -50.2168   57.2077   60.3643 C   0  0  0  0  0  0  0  0  0  0  0  0
  -49.3149   56.0572   59.9293 C   0  0  0  0  0  0  0  0  0  0  0  0
  -47.9302   56.4995   59.4834 C   0  0  0  0  0  0  0  0  0  0  0  0
  -47.3560   55.7429   58.2950 C   0  0  0  0  0  0  0  0  0  0  0  0
  -47.6381   56.4170   56.9874 C   0  0  0  0  0  0  0  0  0  0  0  0
  -42.0081   59.9502   64.7798 O   0  0  0  0  0  0  0  0  0  0  0  0
  -41.5111   61.1501   64.1473 C   0  0  0  0  0  0  0  0  0  0  0  0
  -40.0237   61.3246   64.3699 C   0  0  0  0  0  0  0  0  0  0  0  0
  -39.7598   61.9119   65.6512 O   0  0  0  0  0  0  0  0  0  0  0  0
  -40.0701   61.3155   66.3504 H   0  0  0  0  0  0  0  0  0  0  0  0
  -39.2622   60.0258   64.2458 C   0  0  0  0  0  0  0  0  0  0  0  0
  -39.2194   59.5555   62.8767 O   0  0  0  0  0  0  0  0  0  0  0  0
  -38.6670   60.2186   61.5236 P   0  0  0  0  0  0  0  0  0  0  0  0
  -37.7439   61.3759   61.9012 O   0  0  0  0  0  0  0  0  0  0  0  0
  -39.8121   60.7602   60.7595 O   0  0  0  0  0  0  0  0  0  0  0  0
  -40.2962   61.3958   61.3095 H   0  0  0  0  0  0  0  0  0  0  0  0
  -37.8172   59.1342   60.6252 O   0  0  0  0  0  0  0  0  0  0  0  0
  -37.2142   57.9063   61.1166 C   0  0  0  0  0  0  0  0  0  0  0  0
  -35.7993   58.1659   61.5715 C   0  0  0  0  0  0  0  0  0  0  0  0
  -35.5299   58.0264   63.0583 N   0  0  0  0  0  0  0  0  0  0  0  0
  -36.6201   57.2439   63.7172 C   0  0  0  0  0  0  0  0  0  0  0  0
  -35.4773   59.3906   63.6639 C   0  0  0  0  0  0  0  0  0  0  0  0
  -34.2213   57.3272   63.2930 C   0  0  0  0  0  0  0  0  0  0  0  0
 34 33  1  0  0  0
 34 35  1  0  0  0
 34 36  1  0  0  0
 34 37  1  0  0  0
 22 23  1  0  0  0
 22 25  1  0  0  0
 22 21  1  0  0  0
 27 26  1  0  0  0
 27 28  2  0  0  0
 27 31  1  0  0  0
 27 29  1  0  0  0
 25 26  1  0  0  0
 32 33  1  0  0  0
 32 31  1  0  0  0
 20 21  1  0  0  0
 20  2  1  0  0  0
  1  2  2  0  0  0
  2  3  1  0  0  0
  3  4  1  0  0  0
  4  5  1  0  0  0
  5  6  1  0  0  0
  6  7  1  0  0  0
  7  8  1  0  0  0
  8  9  1  0  0  0
  9 10  1  0  0  0
 10 11  2  0  0  0
 11 12  1  0  0  0
 12 13  1  0  0  0
 13 14  1  0  0  0
 14 15  1  0  0  0
 15 16  1  0  0  0
 16 17  1  0  0  0
 17 18  1  0  0  0
 18 19  1  0  0  0
 23 24  1  0  0  0
 29 30  1  0  0  0
M  CHG 1  28  -1
M  END
> <minimizedAffinity>
-8.19645

> <CNNscore>
0.8507266045

> <CNNaffinity>
6.9931268692

> <CNN_VS>
5.9492392540

> <CNNaffinity_variance>
0.2067584544

$$$$



 37 36  0  0  0  0  0  0  0  0999 V2000
  -42.6920   56.9359   65.7990 O   0  0  0  0  0  0  0  0  0  0  0  0
  -42.6688   58.1418   65.7947 C   0  0  0  0  0  0  0  0  0  0  0  0
  -43.8625   59.0309   65.6258 C   0  0  0  0  0  0  0  0  0  0  0  0
  -45.0438   58.3296   64.9660 C   0  0  0  0  0  0  0  0  0  0  0  0
  -46.0818   57.8020   65.9415 C   0  0  0  0  0  0  0  0  0  0  0  0
  -47.5058   58.1765   65.5699 C   0  0  0  0  0  0  0  0  0  0  0  0
  -47.8295   59.6323   65.8582 C   0  0  0  0  0  0  0  0  0  0  0  0
  -47.7190   60.4984   64.6232 C   0  0  0  0  0  0  0  0  0  0  0  0
  -49.0446   60.9364   64.0343 C   0  0  0  0  0  0  0  0  0  0  0  0
  -49.1031   60.8598   62.5568 C   0  0  0  0  0  0  0  0  0  0  0  0
  -49.8791   60.0630   61.8515 C   0  0  0  0  0  0  0  0  0  0  0  0
  -50.8931   59.0969   62.3722 C   0  0  0  0  0  0  0  0  0  0  0  0
  -50.4763   57.6640   62.0368 C   0  0  0  0  0  0  0  0  0  0  0  0
  -50.6570   57.2560   60.5820 C   0  0  0  0  0  0  0  0  0  0  0  0
  -49.6723   56.2068   60.0801 C   0  0  0  0  0  0  0  0  0  0  0  0
  -48.4109   56.8014   59.4625 C   0  0  0  0  0  0  0  0  0  0  0  0
  -47.4419   55.7595   58.9265 C   0  0  0  0  0  0  0  0  0  0  0  0
  -47.6097   55.4096   57.4555 C   0  0  0  0  0  0  0  0  0  0  0  0
  -46.7862   56.2786   56.5553 C   0  0  0  0  0  0  0  0  0  0  0  0
  -41.5615   58.8725   65.9546 O   0  0  0  0  0  0  0  0  0  0  0  0
  -41.7163   60.2922   66.1718 C   0  0  0  0  0  0  0  0  0  0  0  0
  -40.8170   61.0990   65.2593 C   0  0  0  0  0  0  0  0  0  0  0  0
  -40.2859   62.2440   65.9398 O   0  0  0  0  0  0  0  0  0  0  0  0
  -39.7297   61.9518   66.6789 H   0  0  0  0  0  0  0  0  0  0  0  0
  -39.6814   60.2800   64.6919 C   0  0  0  0  0  0  0  0  0  0  0  0
  -38.5414   61.1050   64.3496 O   0  0  0  0  0  0  0  0  0  0  0  0
  -37.1833   61.4495   65.1324 P   0  0  0  0  0  0  0  0  0  0  0  0
  -37.4059   61.1739   66.6186 O   0  0  0  0  0  0  0  0  0  0  0  0
  -36.8890   62.8889   64.9596 O   0  0  0  0  0  0  0  0  0  0  0  0
  -37.6404   63.4131   65.2783 H   0  0  0  0  0  0  0  0  0  0  0  0
  -35.9318   60.5229   64.6031 O   0  0  0  0  0  0  0  0  0  0  0  0
  -34.5738   60.5476   65.1210 C   0  0  0  0  0  0  0  0  0  0  0  0
  -33.9631   59.1699   65.0489 C   0  0  0  0  0  0  0  0  0  0  0  0
  -33.1128   58.8693   63.8286 N   0  0  0  0  0  0  0  0  0  0  0  0
  -33.9393   58.2321   62.7582 C   0  0  0  0  0  0  0  0  0  0  0  0
  -32.0235   57.9279   64.2260 C   0  0  0  0  0  0  0  0  0  0  0  0
  -32.5059   60.1317   63.2858 C   0  0  0  0  0  0  0  0  0  0  0  0
 34 33  1  0  0  0
 34 35  1  0  0  0
 34 36  1  0  0  0
 34 37  1  0  0  0
 22 23  1  0  0  0
 22 25  1  0  0  0
 22 21  1  0  0  0
 27 26  1  0  0  0
 27 28  2  0  0  0
 27 31  1  0  0  0
 27 29  1  0  0  0
 25 26  1  0  0  0
 32 33  1  0  0  0
 32 31  1  0  0  0
 20 21  1  0  0  0
 20  2  1  0  0  0
  1  2  2  0  0  0
  2  3  1  0  0  0
  3  4  1  0  0  0
  4  5  1  0  0  0
  5  6  1  0  0  0
  6  7  1  0  0  0
  7  8  1  0  0  0
  8  9  1  0  0  0
  9 10  1  0  0  0
 10 11  2  0  0  0
 11 12  1  0  0  0
 12 13  1  0  0  0
 13 14  1  0  0  0
 14 15  1  0  0  0
 15 16  1  0  0  0
 16 17  1  0  0  0
 17 18  1  0  0  0
 18 19  1  0  0  0
 23 24  1  0  0  0
 29 30  1  0  0  0
M  CHG 1  28  -1
M  END
> <minimizedAffinity>
-7.89082

> <CNNscore>
0.8072344065

> <CNNaffinity>
6.6259560585

> <CNN_VS>
5.3486995697

> <CNNaffinity_variance>
0.3310517371

$$$$



 37 36  0  0  0  0  0  0  0  0999 V2000
  -42.9107   56.9402   66.1917 O   0  0  0  0  0  0  0  0  0  0  0  0
  -42.8241   57.9556   65.5465 C   0  0  0  0  0  0  0  0  0  0  0  0
  -43.9335   58.5763   64.7543 C   0  0  0  0  0  0  0  0  0  0  0  0
  -45.2906   57.9352   65.0191 C   0  0  0  0  0  0  0  0  0  0  0  0
  -46.2875   58.8468   65.7139 C   0  0  0  0  0  0  0  0  0  0  0  0
  -47.5311   59.1237   64.8875 C   0  0  0  0  0  0  0  0  0  0  0  0
  -47.8594   60.6036   64.7894 C   0  0  0  0  0  0  0  0  0  0  0  0
  -49.0472   60.8677   63.8911 C   0  0  0  0  0  0  0  0  0  0  0  0
  -50.3461   60.2407   64.3554 C   0  0  0  0  0  0  0  0  0  0  0  0
  -51.3720   60.1226   63.2944 C   0  0  0  0  0  0  0  0  0  0  0  0
  -51.4060   59.2087   62.3466 C   0  0  0  0  0  0  0  0  0  0  0  0
  -50.4539   58.0736   62.1521 C   0  0  0  0  0  0  0  0  0  0  0  0
  -50.8448   57.2646   60.9142 C   0  0  0  0  0  0  0  0  0  0  0  0
  -49.9005   57.3909   59.7277 C   0  0  0  0  0  0  0  0  0  0  0  0
  -48.4812   56.8960   59.9785 C   0  0  0  0  0  0  0  0  0  0  0  0
  -48.1824   55.5483   59.3298 C   0  0  0  0  0  0  0  0  0  0  0  0
  -47.1285   55.6155   58.2360 C   0  0  0  0  0  0  0  0  0  0  0  0
  -47.6235   55.2938   56.8338 C   0  0  0  0  0  0  0  0  0  0  0  0
  -47.6868   56.5016   55.9502 C   0  0  0  0  0  0  0  0  0  0  0  0
  -41.7139   58.6933   65.4521 O   0  0  0  0  0  0  0  0  0  0  0  0
  -41.6524   59.9193   66.2135 C   0  0  0  0  0  0  0  0  0  0  0  0
  -40.9246   61.0110   65.4580 C   0  0  0  0  0  0  0  0  0  0  0  0
  -39.6887   61.3480   66.1026 O   0  0  0  0  0  0  0  0  0  0  0  0
  -39.1006   60.5767   66.0974 H   0  0  0  0  0  0  0  0  0  0  0  0
  -40.6559   60.6401   64.0184 C   0  0  0  0  0  0  0  0  0  0  0  0
  -39.2512   60.7568   63.6856 O   0  0  0  0  0  0  0  0  0  0  0  0
  -38.4590   60.6574   62.2934 P   0  0  0  0  0  0  0  0  0  0  0  0
  -37.3688   61.7278   62.2869 O   0  0  0  0  0  0  0  0  0  0  0  0
  -39.4028   60.9404   61.1899 O   0  0  0  0  0  0  0  0  0  0  0  0
  -39.8038   61.8135   61.3234 H   0  0  0  0  0  0  0  0  0  0  0  0
  -37.7552   59.1829   62.1052 O   0  0  0  0  0  0  0  0  0  0  0  0
  -38.2214   57.9350   62.6868 C   0  0  0  0  0  0  0  0  0  0  0  0
  -37.7810   57.8339   64.1263 C   0  0  0  0  0  0  0  0  0  0  0  0
  -36.2965   57.6322   64.3675 N   0  0  0  0  0  0  0  0  0  0  0  0
  -36.0732   56.5968   65.4226 C   0  0  0  0  0  0  0  0  0  0  0  0
  -35.7070   58.9260   64.8245 C   0  0  0  0  0  0  0  0  0  0  0  0
  -35.6128   57.1925   63.1043 C   0  0  0  0  0  0  0  0  0  0  0  0
 34 33  1  0  0  0
 34 35  1  0  0  0
 34 36  1  0  0  0
 34 37  1  0  0  0
 22 23  1  0  0  0
 22 25  1  0  0  0
 22 21  1  0  0  0
 27 26  1  0  0  0
 27 28  2  0  0  0
 27 31  1  0  0  0
 27 29  1  0  0  0
 25 26  1  0  0  0
 32 33  1  0  0  0
 32 31  1  0  0  0
 20 21  1  0  0  0
 20  2  1  0  0  0
  1  2  2  0  0  0
  2  3  1  0  0  0
  3  4  1  0  0  0
  4  5  1  0  0  0
  5  6  1  0  0  0
  6  7  1  0  0  0
  7  8  1  0  0  0
  8  9  1  0  0  0
  9 10  1  0  0  0
 10 11  2  0  0  0
 11 12  1  0  0  0
 12 13  1  0  0  0
 13 14  1  0  0  0
 14 15  1  0  0  0
 15 16  1  0  0  0
 16 17  1  0  0  0
 17 18  1  0  0  0
 18 19  1  0  0  0
 23 24  1  0  0  0
 29 30  1  0  0  0
M  CHG 1  28  -1
M  END
> <minimizedAffinity>
-8.12569

> <CNNscore>
0.7867351770

> <CNNaffinity>
6.9047460556

> <CNN_VS>
5.4322066307

> <CNNaffinity_variance>
0.3526419103

$$$$



 37 36  0  0  0  0  0  0  0  0999 V2000
  -41.5963   61.0907   62.8737 O   0  0  0  0  0  0  0  0  0  0  0  0
  -41.5012   60.4310   63.8789 C   0  0  0  0  0  0  0  0  0  0  0  0
  -42.5437   60.3276   64.9495 C   0  0  0  0  0  0  0  0  0  0  0  0
  -43.5377   59.1972   64.7113 C   0  0  0  0  0  0  0  0  0  0  0  0
  -44.9750   59.5450   65.0586 C   0  0  0  0  0  0  0  0  0  0  0  0
  -45.3821   59.1078   66.4547 C   0  0  0  0  0  0  0  0  0  0  0  0
  -46.8738   58.8511   66.5833 C   0  0  0  0  0  0  0  0  0  0  0  0
  -47.6116   59.1047   65.2876 C   0  0  0  0  0  0  0  0  0  0  0  0
  -48.6132   58.0332   64.9072 C   0  0  0  0  0  0  0  0  0  0  0  0
  -49.9369   58.5603   64.5046 C   0  0  0  0  0  0  0  0  0  0  0  0
  -50.3755   58.6947   63.2699 C   0  0  0  0  0  0  0  0  0  0  0  0
  -49.6643   58.3131   62.0124 C   0  0  0  0  0  0  0  0  0  0  0  0
  -50.5664   57.4361   61.1426 C   0  0  0  0  0  0  0  0  0  0  0  0
  -49.9934   57.0558   59.7852 C   0  0  0  0  0  0  0  0  0  0  0  0
  -49.0768   55.8383   59.7911 C   0  0  0  0  0  0  0  0  0  0  0  0
  -47.7085   56.1029   59.1715 C   0  0  0  0  0  0  0  0  0  0  0  0
  -47.7212   57.1761   58.0945 C   0  0  0  0  0  0  0  0  0  0  0  0
  -47.7296   56.6619   56.6627 C   0  0  0  0  0  0  0  0  0  0  0  0
  -47.2948   55.2325   56.5575 C   0  0  0  0  0  0  0  0  0  0  0  0
  -40.4425   59.6750   64.1840 O   0  0  0  0  0  0  0  0  0  0  0  0
  -39.4869   60.2033   65.1298 C   0  0  0  0  0  0  0  0  0  0  0  0
  -38.8686   61.4948   64.6379 C   0  0  0  0  0  0  0  0  0  0  0  0
  -38.4561   62.3198   65.7359 O   0  0  0  0  0  0  0  0  0  0  0  0
  -37.7648   61.8638   66.2410 H   0  0  0  0  0  0  0  0  0  0  0  0
  -37.6950   61.2617   63.7155 C   0  0  0  0  0  0  0  0  0  0  0  0
  -38.1079   60.6785   62.4559 O   0  0  0  0  0  0  0  0  0  0  0  0
  -37.7563   59.2833   61.7447 P   0  0  0  0  0  0  0  0  0  0  0  0
  -38.2155   59.3601   60.2896 O   0  0  0  0  0  0  0  0  0  0  0  0
  -38.5102   58.2042   62.4197 O   0  0  0  0  0  0  0  0  0  0  0  0
  -39.4588   58.4041   62.3885 H   0  0  0  0  0  0  0  0  0  0  0  0
  -36.1396   58.9828   61.7751 O   0  0  0  0  0  0  0  0  0  0  0  0
  -35.5037   57.7908   62.3116 C   0  0  0  0  0  0  0  0  0  0  0  0
  -34.3439   58.1724   63.1978 C   0  0  0  0  0  0  0  0  0  0  0  0
  -34.6220   58.2331   64.6883 N   0  0  0  0  0  0  0  0  0  0  0  0
  -35.1793   59.5687   65.0632 C   0  0  0  0  0  0  0  0  0  0  0  0
  -33.3391   58.0189   65.4224 C   0  0  0  0  0  0  0  0  0  0  0  0
  -35.6055   57.1689   65.0842 C   0  0  0  0  0  0  0  0  0  0  0  0
 34 33  1  0  0  0
 34 35  1  0  0  0
 34 36  1  0  0  0
 34 37  1  0  0  0
 22 23  1  0  0  0
 22 25  1  0  0  0
 22 21  1  0  0  0
 27 26  1  0  0  0
 27 28  2  0  0  0
 27 31  1  0  0  0
 27 29  1  0  0  0
 25 26  1  0  0  0
 32 33  1  0  0  0
 32 31  1  0  0  0
 20 21  1  0  0  0
 20  2  1  0  0  0
  1  2  2  0  0  0
  2  3  1  0  0  0
  3  4  1  0  0  0
  4  5  1  0  0  0
  5  6  1  0  0  0
  6  7  1  0  0  0
  7  8  1  0  0  0
  8  9  1  0  0  0
  9 10  1  0  0  0
 10 11  2  0  0  0
 11 12  1  0  0  0
 12 13  1  0  0  0
 13 14  1  0  0  0
 14 15  1  0  0  0
 15 16  1  0  0  0
 16 17  1  0  0  0
 17 18  1  0  0  0
 18 19  1  0  0  0
 23 24  1  0  0  0
 29 30  1  0  0  0
M  CHG 1  28  -1
M  END
> <minimizedAffinity>
-7.72399

> <CNNscore>
0.7853915691

> <CNNaffinity>
6.7617783546

> <CNN_VS>
5.3106436729

> <CNNaffinity_variance>
0.4441518784

$$$$



 37 36  0  0  0  0  0  0  0  0999 V2000
  -41.8680   59.4305   67.0586 O   0  0  0  0  0  0  0  0  0  0  0  0
  -42.4940   59.3240   66.0332 C   0  0  0  0  0  0  0  0  0  0  0  0
  -43.9873   59.2645   65.9318 C   0  0  0  0  0  0  0  0  0  0  0  0
  -44.4802   58.1958   64.9635 C   0  0  0  0  0  0  0  0  0  0  0  0
  -45.5519   57.2823   65.5335 C   0  0  0  0  0  0  0  0  0  0  0  0
  -46.4639   57.9711   66.5333 C   0  0  0  0  0  0  0  0  0  0  0  0
  -47.5956   58.7385   65.8715 C   0  0  0  0  0  0  0  0  0  0  0  0
  -48.3818   57.8793   64.9066 C   0  0  0  0  0  0  0  0  0  0  0  0
  -49.8849   58.0570   64.9780 C   0  0  0  0  0  0  0  0  0  0  0  0
  -50.3163   59.4509   65.2294 C   0  0  0  0  0  0  0  0  0  0  0  0
  -50.8984   60.2514   64.3604 C   0  0  0  0  0  0  0  0  0  0  0  0
  -51.2885   59.9277   62.9549 C   0  0  0  0  0  0  0  0  0  0  0  0
  -50.1061   60.1611   62.0131 C   0  0  0  0  0  0  0  0  0  0  0  0
  -49.7077   58.9669   61.1583 C   0  0  0  0  0  0  0  0  0  0  0  0
  -50.5591   57.7189   61.3583 C   0  0  0  0  0  0  0  0  0  0  0  0
  -50.3874   56.6809   60.2542 C   0  0  0  0  0  0  0  0  0  0  0  0
  -49.6281   57.1964   59.0419 C   0  0  0  0  0  0  0  0  0  0  0  0
  -48.3443   56.4500   58.7115 C   0  0  0  0  0  0  0  0  0  0  0  0
  -47.4151   57.2484   57.8497 C   0  0  0  0  0  0  0  0  0  0  0  0
  -41.9406   59.2549   64.8189 O   0  0  0  0  0  0  0  0  0  0  0  0
  -41.6847   60.4948   64.1232 C   0  0  0  0  0  0  0  0  0  0  0  0
  -40.2130   60.8503   64.1370 C   0  0  0  0  0  0  0  0  0  0  0  0
  -39.8347   61.5261   62.9302 O   0  0  0  0  0  0  0  0  0  0  0  0
  -40.3155   62.3661   62.8656 H   0  0  0  0  0  0  0  0  0  0  0  0
  -39.8320   61.6976   65.3283 C   0  0  0  0  0  0  0  0  0  0  0  0
  -38.5097   61.3709   65.8203 O   0  0  0  0  0  0  0  0  0  0  0  0
  -37.0397   61.7693   65.3140 P   0  0  0  0  0  0  0  0  0  0  0  0
  -36.3739   62.6145   66.3987 O   0  0  0  0  0  0  0  0  0  0  0  0
  -37.1665   62.5899   64.0897 O   0  0  0  0  0  0  0  0  0  0  0  0
  -37.7144   63.3680   64.2774 H   0  0  0  0  0  0  0  0  0  0  0  0
  -36.1160   60.4366   65.0389 O   0  0  0  0  0  0  0  0  0  0  0  0
  -36.5676   59.0567   65.1091 C   0  0  0  0  0  0  0  0  0  0  0  0
  -36.1713   58.3140   63.8571 C   0  0  0  0  0  0  0  0  0  0  0  0
  -37.2620   58.0973   62.8246 N   0  0  0  0  0  0  0  0  0  0  0  0
  -38.5415   57.7021   63.4893 C   0  0  0  0  0  0  0  0  0  0  0  0
  -36.8356   57.0026   61.9025 C   0  0  0  0  0  0  0  0  0  0  0  0
  -37.4944   59.3525   62.0328 C   0  0  0  0  0  0  0  0  0  0  0  0
 34 33  1  0  0  0
 34 35  1  0  0  0
 34 36  1  0  0  0
 34 37  1  0  0  0
 22 23  1  0  0  0
 22 25  1  0  0  0
 22 21  1  0  0  0
 27 26  1  0  0  0
 27 28  2  0  0  0
 27 31  1  0  0  0
 27 29  1  0  0  0
 25 26  1  0  0  0
 32 33  1  0  0  0
 32 31  1  0  0  0
 20 21  1  0  0  0
 20  2  1  0  0  0
  1  2  2  0  0  0
  2  3  1  0  0  0
  3  4  1  0  0  0
  4  5  1  0  0  0
  5  6  1  0  0  0
  6  7  1  0  0  0
  7  8  1  0  0  0
  8  9  1  0  0  0
  9 10  1  0  0  0
 10 11  2  0  0  0
 11 12  1  0  0  0
 12 13  1  0  0  0
 13 14  1  0  0  0
 14 15  1  0  0  0
 15 16  1  0  0  0
 16 17  1  0  0  0
 17 18  1  0  0  0
 18 19  1  0  0  0
 23 24  1  0  0  0
 29 30  1  0  0  0
M  CHG 1  28  -1
M  END
> <minimizedAffinity>
-8.14700

> <CNNscore>
0.7445719838

> <CNNaffinity>
6.8791685104

> <CNN_VS>
5.1220359802

> <CNNaffinity_variance>
0.3279025257

$$$$



 37 36  0  0  0  0  0  0  0  0999 V2000
  -44.5948   60.1829   65.0772 O   0  0  0  0  0  0  0  0  0  0  0  0
  -43.5975   59.5178   65.2099 C   0  0  0  0  0  0  0  0  0  0  0  0
  -43.5506   58.0208   65.2305 C   0  0  0  0  0  0  0  0  0  0  0  0
  -44.8542   57.3739   64.7780 C   0  0  0  0  0  0  0  0  0  0  0  0
  -45.7386   56.8890   65.9138 C   0  0  0  0  0  0  0  0  0  0  0  0
  -47.2029   57.2498   65.7358 C   0  0  0  0  0  0  0  0  0  0  0  0
  -47.4575   58.7454   65.8112 C   0  0  0  0  0  0  0  0  0  0  0  0
  -48.1759   59.2659   64.5862 C   0  0  0  0  0  0  0  0  0  0  0  0
  -48.7316   58.1926   63.6723 C   0  0  0  0  0  0  0  0  0  0  0  0
  -50.1576   58.3791   63.3204 C   0  0  0  0  0  0  0  0  0  0  0  0
  -50.6336   58.6290   62.1180 C   0  0  0  0  0  0  0  0  0  0  0  0
  -49.8589   58.7394   60.8451 C   0  0  0  0  0  0  0  0  0  0  0  0
  -50.4118   57.7629   59.8058 C   0  0  0  0  0  0  0  0  0  0  0  0
  -49.3656   56.9986   59.0077 C   0  0  0  0  0  0  0  0  0  0  0  0
  -48.1498   56.5458   59.8070 C   0  0  0  0  0  0  0  0  0  0  0  0
  -46.9956   56.0588   58.9369 C   0  0  0  0  0  0  0  0  0  0  0  0
  -46.6547   56.9975   57.7904 C   0  0  0  0  0  0  0  0  0  0  0  0
  -47.0229   56.4924   56.4034 C   0  0  0  0  0  0  0  0  0  0  0  0
  -47.5444   55.0884   56.4174 C   0  0  0  0  0  0  0  0  0  0  0  0
  -42.3690   60.0251   65.3476 O   0  0  0  0  0  0  0  0  0  0  0  0
  -41.8704   60.8792   64.2946 C   0  0  0  0  0  0  0  0  0  0  0  0
  -40.3572   60.9260   64.2818 C   0  0  0  0  0  0  0  0  0  0  0  0
  -39.8737   61.6591   63.1482 O   0  0  0  0  0  0  0  0  0  0  0  0
  -40.1726   62.5800   63.2072 H   0  0  0  0  0  0  0  0  0  0  0  0
  -39.7845   61.5213   65.5468 C   0  0  0  0  0  0  0  0  0  0  0  0
  -38.4287   61.0724   65.7871 O   0  0  0  0  0  0  0  0  0  0  0  0
  -37.0012   61.6737   65.3666 P   0  0  0  0  0  0  0  0  0  0  0  0
  -36.5340   62.6145   66.4760 O   0  0  0  0  0  0  0  0  0  0  0  0
  -37.1650   62.4575   64.1228 O   0  0  0  0  0  0  0  0  0  0  0  0
  -37.8293   63.1504   64.2623 H   0  0  0  0  0  0  0  0  0  0  0  0
  -35.8810   60.4851   65.1728 O   0  0  0  0  0  0  0  0  0  0  0  0
  -35.6153   59.7558   63.9438 C   0  0  0  0  0  0  0  0  0  0  0  0
  -36.2351   58.3819   64.0084 C   0  0  0  0  0  0  0  0  0  0  0  0
  -37.3843   58.1121   63.0549 N   0  0  0  0  0  0  0  0  0  0  0  0
  -37.0425   56.9911   62.1265 C   0  0  0  0  0  0  0  0  0  0  0  0
  -37.6390   59.3460   62.2530 C   0  0  0  0  0  0  0  0  0  0  0  0
  -38.6267   57.7487   63.8170 C   0  0  0  0  0  0  0  0  0  0  0  0
 34 33  1  0  0  0
 34 35  1  0  0  0
 34 36  1  0  0  0
 34 37  1  0  0  0
 22 23  1  0  0  0
 22 25  1  0  0  0
 22 21  1  0  0  0
 27 26  1  0  0  0
 27 28  2  0  0  0
 27 31  1  0  0  0
 27 29  1  0  0  0
 25 26  1  0  0  0
 32 33  1  0  0  0
 32 31  1  0  0  0
 20 21  1  0  0  0
 20  2  1  0  0  0
  1  2  2  0  0  0
  2  3  1  0  0  0
  3  4  1  0  0  0
  4  5  1  0  0  0
  5  6  1  0  0  0
  6  7  1  0  0  0
  7  8  1  0  0  0
  8  9  1  0  0  0
  9 10  1  0  0  0
 10 11  2  0  0  0
 11 12  1  0  0  0
 12 13  1  0  0  0
 13 14  1  0  0  0
 14 15  1  0  0  0
 15 16  1  0  0  0
 16 17  1  0  0  0
 17 18  1  0  0  0
 18 19  1  0  0  0
 23 24  1  0  0  0
 29 30  1  0  0  0
M  CHG 1  28  -1
M  END
> <minimizedAffinity>
-7.89087

> <CNNscore>
0.7354423404

> <CNNaffinity>
6.9694061279

> <CNN_VS>
5.1255965233

> <CNNaffinity_variance>
0.2130544484

$$$$



 37 36  0  0  0  0  0  0  0  0999 V2000
  -40.9599   61.7884   64.3680 O   0  0  0  0  0  0  0  0  0  0  0  0
  -40.7629   61.3398   65.4701 C   0  0  0  0  0  0  0  0  0  0  0  0
  -41.7860   60.6530   66.3218 C   0  0  0  0  0  0  0  0  0  0  0  0
  -42.3988   59.4285   65.6526 C   0  0  0  0  0  0  0  0  0  0  0  0
  -43.7000   59.7030   64.9184 C   0  0  0  0  0  0  0  0  0  0  0  0
  -44.9364   59.3716   65.7354 C   0  0  0  0  0  0  0  0  0  0  0  0
  -45.4642   57.9722   65.4694 C   0  0  0  0  0  0  0  0  0  0  0  0
  -46.7518   57.9878   64.6760 C   0  0  0  0  0  0  0  0  0  0  0  0
  -47.9674   58.4598   65.4478 C   0  0  0  0  0  0  0  0  0  0  0  0
  -48.6668   59.6082   64.8280 C   0  0  0  0  0  0  0  0  0  0  0  0
  -49.5718   59.5420   63.8734 C   0  0  0  0  0  0  0  0  0  0  0  0
  -50.1223   58.3083   63.2350 C   0  0  0  0  0  0  0  0  0  0  0  0
  -49.4775   58.0918   61.8649 C   0  0  0  0  0  0  0  0  0  0  0  0
  -50.4380   57.7260   60.7428 C   0  0  0  0  0  0  0  0  0  0  0  0
  -49.7844   57.1165   59.5085 C   0  0  0  0  0  0  0  0  0  0  0  0
  -48.7029   56.0918   59.8350 C   0  0  0  0  0  0  0  0  0  0  0  0
  -47.5267   56.1148   58.8717 C   0  0  0  0  0  0  0  0  0  0  0  0
  -47.7986   56.7724   57.5271 C   0  0  0  0  0  0  0  0  0  0  0  0
  -47.3182   55.9494   56.3716 C   0  0  0  0  0  0  0  0  0  0  0  0
  -39.5837   61.3789   66.0975 O   0  0  0  0  0  0  0  0  0  0  0  0
  -38.4705   60.6927   65.4836 C   0  0  0  0  0  0  0  0  0  0  0  0
  -37.2731   61.6046   65.3196 C   0  0  0  0  0  0  0  0  0  0  0  0
  -36.6066   61.8105   66.5725 O   0  0  0  0  0  0  0  0  0  0  0  0
  -36.2603   60.9646   66.8973 H   0  0  0  0  0  0  0  0  0  0  0  0
  -36.2834   61.0855   64.3031 C   0  0  0  0  0  0  0  0  0  0  0  0
  -36.7971   59.9336   63.5913 O   0  0  0  0  0  0  0  0  0  0  0  0
  -36.4852   58.3636   63.7091 P   0  0  0  0  0  0  0  0  0  0  0  0
  -37.8095   57.6062   63.6261 O   0  0  0  0  0  0  0  0  0  0  0  0
  -35.8742   58.0997   65.0302 O   0  0  0  0  0  0  0  0  0  0  0  0
  -36.4702   58.4098   65.7298 H   0  0  0  0  0  0  0  0  0  0  0  0
  -35.5047   57.8517   62.4918 O   0  0  0  0  0  0  0  0  0  0  0  0
  -34.1272   57.4102   62.6348 C   0  0  0  0  0  0  0  0  0  0  0  0
  -33.1817   58.5032   62.2018 C   0  0  0  0  0  0  0  0  0  0  0  0
  -32.3365   59.1379   63.2906 N   0  0  0  0  0  0  0  0  0  0  0  0
  -30.9096   59.2369   62.8553 C   0  0  0  0  0  0  0  0  0  0  0  0
  -32.4129   58.2836   64.5132 C   0  0  0  0  0  0  0  0  0  0  0  0
  -32.8415   60.5152   63.6137 C   0  0  0  0  0  0  0  0  0  0  0  0
 34 33  1  0  0  0
 34 35  1  0  0  0
 34 36  1  0  0  0
 34 37  1  0  0  0
 22 23  1  0  0  0
 22 25  1  0  0  0
 22 21  1  0  0  0
 27 26  1  0  0  0
 27 28  2  0  0  0
 27 31  1  0  0  0
 27 29  1  0  0  0
 25 26  1  0  0  0
 32 33  1  0  0  0
 32 31  1  0  0  0
 20 21  1  0  0  0
 20  2  1  0  0  0
  1  2  2  0  0  0
  2  3  1  0  0  0
  3  4  1  0  0  0
  4  5  1  0  0  0
  5  6  1  0  0  0
  6  7  1  0  0  0
  7  8  1  0  0  0
  8  9  1  0  0  0
  9 10  1  0  0  0
 10 11  2  0  0  0
 11 12  1  0  0  0
 12 13  1  0  0  0
 13 14  1  0  0  0
 14 15  1  0  0  0
 15 16  1  0  0  0
 16 17  1  0  0  0
 17 18  1  0  0  0
 18 19  1  0  0  0
 23 24  1  0  0  0
 29 30  1  0  0  0
M  CHG 1  28  -1
M  END
> <minimizedAffinity>
-7.55944

> <CNNscore>
0.7079195380

> <CNNaffinity>
6.4686441422

> <CNN_VS>
4.5792794228

> <CNNaffinity_variance>
1.1937507391

$$$$



 37 36  0  0  0  0  0  0  0  0999 V2000
  -44.0378   60.3601   65.0497 O   0  0  0  0  0  0  0  0  0  0  0  0
  -43.1544   59.5886   65.3310 C   0  0  0  0  0  0  0  0  0  0  0  0
  -43.2980   58.1000   65.4150 C   0  0  0  0  0  0  0  0  0  0  0  0
  -44.5748   57.5832   64.7628 C   0  0  0  0  0  0  0  0  0  0  0  0
  -45.5905   57.0164   65.7398 C   0  0  0  0  0  0  0  0  0  0  0  0
  -46.6303   58.0293   66.1861 C   0  0  0  0  0  0  0  0  0  0  0  0
  -47.2947   58.7469   65.0238 C   0  0  0  0  0  0  0  0  0  0  0  0
  -48.3357   57.8879   64.3409 C   0  0  0  0  0  0  0  0  0  0  0  0
  -49.7247   57.9773   64.9396 C   0  0  0  0  0  0  0  0  0  0  0  0
  -50.1779   59.3610   65.2083 C   0  0  0  0  0  0  0  0  0  0  0  0
  -50.7758   60.1618   64.3504 C   0  0  0  0  0  0  0  0  0  0  0  0
  -51.1654   59.8478   62.9425 C   0  0  0  0  0  0  0  0  0  0  0  0
  -49.9986   60.1363   61.9965 C   0  0  0  0  0  0  0  0  0  0  0  0
  -49.8285   59.1492   60.8510 C   0  0  0  0  0  0  0  0  0  0  0  0
  -50.4867   57.7919   61.0671 C   0  0  0  0  0  0  0  0  0  0  0  0
  -49.8364   56.6657   60.2703 C   0  0  0  0  0  0  0  0  0  0  0  0
  -49.1788   57.1290   58.9801 C   0  0  0  0  0  0  0  0  0  0  0  0
  -47.7867   56.5724   58.7221 C   0  0  0  0  0  0  0  0  0  0  0  0
  -47.2113   57.0317   57.4176 C   0  0  0  0  0  0  0  0  0  0  0  0
  -41.8971   59.9521   65.6008 O   0  0  0  0  0  0  0  0  0  0  0  0
  -41.0128   60.1993   64.4856 C   0  0  0  0  0  0  0  0  0  0  0  0
  -39.9426   61.2120   64.8342 C   0  0  0  0  0  0  0  0  0  0  0  0
  -40.3380   62.0145   65.9549 O   0  0  0  0  0  0  0  0  0  0  0  0
  -40.4413   61.4497   66.7367 H   0  0  0  0  0  0  0  0  0  0  0  0
  -38.6068   60.5682   65.1233 C   0  0  0  0  0  0  0  0  0  0  0  0
  -37.7726   61.4099   65.9557 O   0  0  0  0  0  0  0  0  0  0  0  0
  -36.3842   62.1661   65.6791 P   0  0  0  0  0  0  0  0  0  0  0  0
  -35.3125   61.1120   65.4062 O   0  0  0  0  0  0  0  0  0  0  0  0
  -36.0047   62.9194   66.8943 O   0  0  0  0  0  0  0  0  0  0  0  0
  -35.9483   62.3108   67.6476 H   0  0  0  0  0  0  0  0  0  0  0  0
  -36.4912   63.1631   64.3754 O   0  0  0  0  0  0  0  0  0  0  0  0
  -35.3762   63.6472   63.5783 C   0  0  0  0  0  0  0  0  0  0  0  0
  -34.6357   64.7313   64.3216 C   0  0  0  0  0  0  0  0  0  0  0  0
  -33.1523   64.5054   64.5473 N   0  0  0  0  0  0  0  0  0  0  0  0
  -32.8912   64.1205   65.9682 C   0  0  0  0  0  0  0  0  0  0  0  0
  -32.4250   65.7747   64.2468 C   0  0  0  0  0  0  0  0  0  0  0  0
  -32.6428   63.4152   63.6482 C   0  0  0  0  0  0  0  0  0  0  0  0
 34 33  1  0  0  0
 34 35  1  0  0  0
 34 36  1  0  0  0
 34 37  1  0  0  0
 22 23  1  0  0  0
 22 25  1  0  0  0
 22 21  1  0  0  0
 27 26  1  0  0  0
 27 28  2  0  0  0
 27 31  1  0  0  0
 27 29  1  0  0  0
 25 26  1  0  0  0
 32 33  1  0  0  0
 32 31  1  0  0  0
 20 21  1  0  0  0
 20  2  1  0  0  0
  1  2  2  0  0  0
  2  3  1  0  0  0
  3  4  1  0  0  0
  4  5  1  0  0  0
  5  6  1  0  0  0
  6  7  1  0  0  0
  7  8  1  0  0  0
  8  9  1  0  0  0
  9 10  1  0  0  0
 10 11  2  0  0  0
 11 12  1  0  0  0
 12 13  1  0  0  0
 13 14  1  0  0  0
 14 15  1  0  0  0
 15 16  1  0  0  0
 16 17  1  0  0  0
 17 18  1  0  0  0
 18 19  1  0  0  0
 23 24  1  0  0  0
 29 30  1  0  0  0
M  CHG 1  28  -1
M  END
> <minimizedAffinity>
-8.14458

> <CNNscore>
0.7023745179

> <CNNaffinity>
6.3342757225

> <CNN_VS>
4.4490337372

> <CNNaffinity_variance>
0.2049182653

$$$$
