


 37 36  0  0  0  0  0  0  0  0999 V2000
  -45.4693   58.2902   64.5934 O   0  0  0  0  0  0  0  0  0  0  0  0
  -45.6021   57.2383   65.1684 C   0  0  0  0  0  0  0  0  0  0  0  0
  -46.7847   56.8494   66.0015 C   0  0  0  0  0  0  0  0  0  0  0  0
  -48.0673   57.5636   65.5921 C   0  0  0  0  0  0  0  0  0  0  0  0
  -48.3494   58.8371   66.3706 C   0  0  0  0  0  0  0  0  0  0  0  0
  -49.7866   59.3127   66.2511 C   0  0  0  0  0  0  0  0  0  0  0  0
  -50.4187   58.9574   64.9164 C   0  0  0  0  0  0  0  0  0  0  0  0
  -51.0032   60.1663   64.2203 C   0  0  0  0  0  0  0  0  0  0  0  0
  -51.1403   60.0291   62.7176 C   0  0  0  0  0  0  0  0  0  0  0  0
  -50.4620   58.8387   62.1562 C   0  0  0  0  0  0  0  0  0  0  0  0
  -49.7918   58.7900   61.0234 C   0  0  0  0  0  0  0  0  0  0  0  0
  -49.5310   59.9184   60.0793 C   0  0  0  0  0  0  0  0  0  0  0  0
  -48.0532   60.3105   60.1228 C   0  0  0  0  0  0  0  0  0  0  0  0
  -47.1696   59.6397   59.0812 C   0  0  0  0  0  0  0  0  0  0  0  0
  -46.2660   58.5360   59.6174 C   0  0  0  0  0  0  0  0  0  0  0  0
  -45.8926   57.4919   58.5703 C   0  0  0  0  0  0  0  0  0  0  0  0
  -46.3194   57.8608   57.1584 C   0  0  0  0  0  0  0  0  0  0  0  0
  -47.3875   56.9669   56.5462 C   0  0  0  0  0  0  0  0  0  0  0  0
  -47.2582   55.5360   56.9695 C   0  0  0  0  0  0  0  0  0  0  0  0
  -44.7073   56.2464   65.1365 O   0  0  0  0  0  0  0  0  0  0  0  0
  -43.3320   56.5693   65.4386 C   0  0  0  0  0  0  0  0  0  0  0  0
  -42.4776   56.6009   64.1891 C   0  0  0  0  0  0  0  0  0  0  0  0
  -43.2063   57.1446   63.0801 O   0  0  0  0  0  0  0  0  0  0  0  0
  -43.4434   58.0659   63.2694 H   0  0  0  0  0  0  0  0  0  0  0  0
  -41.1981   57.3810   64.3808 C   0  0  0  0  0  0  0  0  0  0  0  0
  -41.3665   58.4682   65.3226 O   0  0  0  0  0  0  0  0  0  0  0  0
  -41.9236   59.9643   65.1572 P   0  0  0  0  0  0  0  0  0  0  0  0
  -41.1030   60.8821   66.0618 O   0  0  0  0  0  0  0  0  0  0  0  0
  -43.3326   59.9976   65.6067 O   0  0  0  0  0  0  0  0  0  0  0  0
  -43.3871   59.6841   66.5230 H   0  0  0  0  0  0  0  0  0  0  0  0
  -41.7863   60.4895   63.6046 O   0  0  0  0  0  0  0  0  0  0  0  0
  -40.5420   60.7263   62.8914 C   0  0  0  0  0  0  0  0  0  0  0  0
  -40.4954   59.8946   61.6336 C   0  0  0  0  0  0  0  0  0  0  0  0
  -39.1678   59.2369   61.3057 N   0  0  0  0  0  0  0  0  0  0  0  0
  -39.3440   57.7636   61.1227 C   0  0  0  0  0  0  0  0  0  0  0  0
  -38.2240   59.4760   62.4382 C   0  0  0  0  0  0  0  0  0  0  0  0
  -38.5902   59.8163   60.0458 C   0  0  0  0  0  0  0  0  0  0  0  0
 34 33  1  0  0  0
 34 35  1  0  0  0
 34 36  1  0  0  0
 34 37  1  0  0  0
 22 23  1  0  0  0
 22 25  1  0  0  0
 22 21  1  0  0  0
 27 26  1  0  0  0
 27 28  2  0  0  0
 27 31  1  0  0  0
 27 29  1  0  0  0
 25 26  1  0  0  0
 32 33  1  0  0  0
 32 31  1  0  0  0
 20 21  1  0  0  0
 20  2  1  0  0  0
  1  2  2  0  0  0
  2  3  1  0  0  0
  3  4  1  0  0  0
  4  5  1  0  0  0
  5  6  1  0  0  0
  6  7  1  0  0  0
  7  8  1  0  0  0
  8  9  1  0  0  0
  9 10  1  0  0  0
 10 11  2  0  0  0
 11 12  1  0  0  0
 12 13  1  0  0  0
 13 14  1  0  0  0
 14 15  1  0  0  0
 15 16  1  0  0  0
 16 17  1  0  0  0
 17 18  1  0  0  0
 18 19  1  0  0  0
 23 24  1  0  0  0
 29 30  1  0  0  0
M  CHG 1  28  -1
M  END
> <minimizedAffinity>
-7.45973

> <CNNscore>
0.4035896063

> <CNNaffinity>
6.3619894981

> <CNN_VS>
2.5676329136

> <CNNaffinity_variance>
0.4307110310

$$$$



 37 36  0  0  0  0  0  0  0  0999 V2000
  -46.4865   58.8434   67.2487 O   0  0  0  0  0  0  0  0  0  0  0  0
  -46.6307   59.7228   66.4360 C   0  0  0  0  0  0  0  0  0  0  0  0
  -47.9077   60.4612   66.1754 C   0  0  0  0  0  0  0  0  0  0  0  0
  -49.1501   59.6074   66.3990 C   0  0  0  0  0  0  0  0  0  0  0  0
  -50.1154   59.5893   65.2263 C   0  0  0  0  0  0  0  0  0  0  0  0
  -49.9158   58.4047   64.2974 C   0  0  0  0  0  0  0  0  0  0  0  0
  -49.5139   58.8160   62.8914 C   0  0  0  0  0  0  0  0  0  0  0  0
  -50.6896   58.8255   61.9400 C   0  0  0  0  0  0  0  0  0  0  0  0
  -50.8261   57.5807   61.0869 C   0  0  0  0  0  0  0  0  0  0  0  0
  -50.4422   57.7752   59.6702 C   0  0  0  0  0  0  0  0  0  0  0  0
  -49.4886   57.1312   59.0295 C   0  0  0  0  0  0  0  0  0  0  0  0
  -48.6156   56.0435   59.5658 C   0  0  0  0  0  0  0  0  0  0  0  0
  -47.7048   55.5062   58.4607 C   0  0  0  0  0  0  0  0  0  0  0  0
  -47.8971   56.1410   57.0911 C   0  0  0  0  0  0  0  0  0  0  0  0
  -46.7345   57.0012   56.6109 C   0  0  0  0  0  0  0  0  0  0  0  0
  -46.2080   57.9614   57.6725 C   0  0  0  0  0  0  0  0  0  0  0  0
  -46.8914   59.3196   57.6628 C   0  0  0  0  0  0  0  0  0  0  0  0
  -47.1204   59.9434   59.0313 C   0  0  0  0  0  0  0  0  0  0  0  0
  -46.3936   59.2237   60.1255 C   0  0  0  0  0  0  0  0  0  0  0  0
  -45.6561   60.1829   65.6460 O   0  0  0  0  0  0  0  0  0  0  0  0
  -44.7392   59.2222   65.0774 C   0  0  0  0  0  0  0  0  0  0  0  0
  -44.2959   59.6271   63.6875 C   0  0  0  0  0  0  0  0  0  0  0  0
  -44.9988   60.7949   63.2420 O   0  0  0  0  0  0  0  0  0  0  0  0
  -44.7853   61.5420   63.8227 H   0  0  0  0  0  0  0  0  0  0  0  0
  -42.8077   59.8729   63.6018 C   0  0  0  0  0  0  0  0  0  0  0  0
  -42.1038   58.7302   63.0577 O   0  0  0  0  0  0  0  0  0  0  0  0
  -41.3202   57.5134   63.7515 P   0  0  0  0  0  0  0  0  0  0  0  0
  -42.3163   56.7276   64.6027 O   0  0  0  0  0  0  0  0  0  0  0  0
  -40.2761   58.0679   64.6407 O   0  0  0  0  0  0  0  0  0  0  0  0
  -40.6860   58.6598   65.2908 H   0  0  0  0  0  0  0  0  0  0  0  0
  -40.6663   56.5020   62.6315 O   0  0  0  0  0  0  0  0  0  0  0  0
  -39.3693   56.6595   61.9942 C   0  0  0  0  0  0  0  0  0  0  0  0
  -39.4124   57.7907   60.9969 C   0  0  0  0  0  0  0  0  0  0  0  0
  -38.2296   58.7413   60.9998 N   0  0  0  0  0  0  0  0  0  0  0  0
  -38.3336   59.7033   62.1395 C   0  0  0  0  0  0  0  0  0  0  0  0
  -38.2289   59.5064   59.7172 C   0  0  0  0  0  0  0  0  0  0  0  0
  -36.9415   57.9787   61.1250 C   0  0  0  0  0  0  0  0  0  0  0  0
 34 33  1  0  0  0
 34 35  1  0  0  0
 34 36  1  0  0  0
 34 37  1  0  0  0
 22 23  1  0  0  0
 22 25  1  0  0  0
 22 21  1  0  0  0
 27 26  1  0  0  0
 27 28  2  0  0  0
 27 31  1  0  0  0
 27 29  1  0  0  0
 25 26  1  0  0  0
 32 33  1  0  0  0
 32 31  1  0  0  0
 20 21  1  0  0  0
 20  2  1  0  0  0
  1  2  2  0  0  0
  2  3  1  0  0  0
  3  4  1  0  0  0
  4  5  1  0  0  0
  5  6  1  0  0  0
  6  7  1  0  0  0
  7  8  1  0  0  0
  8  9  1  0  0  0
  9 10  1  0  0  0
 10 11  2  0  0  0
 11 12  1  0  0  0
 12 13  1  0  0  0
 13 14  1  0  0  0
 14 15  1  0  0  0
 15 16  1  0  0  0
 16 17  1  0  0  0
 17 18  1  0  0  0
 18 19  1  0  0  0
 23 24  1  0  0  0
 29 30  1  0  0  0
M  CHG 1  28  -1
M  END
> <minimizedAffinity>
-7.51998

> <CNNscore>
0.3791581094

> <CNNaffinity>
6.2893166542

> <CNN_VS>
2.3846454620

> <CNNaffinity_variance>
0.6543094516

$$$$



 37 36  0  0  0  0  0  0  0  0999 V2000
  -44.5920   58.6815   61.8800 O   0  0  0  0  0  0  0  0  0  0  0  0
  -45.4873   59.0844   61.1796 C   0  0  0  0  0  0  0  0  0  0  0  0
  -45.8352   58.5495   59.8244 C   0  0  0  0  0  0  0  0  0  0  0  0
  -46.8004   59.4445   59.0562 C   0  0  0  0  0  0  0  0  0  0  0  0
  -46.9247   59.1079   57.5802 C   0  0  0  0  0  0  0  0  0  0  0  0
  -46.3925   57.7300   57.2276 C   0  0  0  0  0  0  0  0  0  0  0  0
  -47.4952   56.7184   56.9666 C   0  0  0  0  0  0  0  0  0  0  0  0
  -47.3848   55.5071   57.8656 C   0  0  0  0  0  0  0  0  0  0  0  0
  -47.7876   55.7472   59.3065 C   0  0  0  0  0  0  0  0  0  0  0  0
  -49.2492   55.8626   59.5130 C   0  0  0  0  0  0  0  0  0  0  0  0
  -49.8507   56.6607   60.3709 C   0  0  0  0  0  0  0  0  0  0  0  0
  -49.2076   57.6478   61.2899 C   0  0  0  0  0  0  0  0  0  0  0  0
  -49.6951   59.0616   60.9688 C   0  0  0  0  0  0  0  0  0  0  0  0
  -49.9592   59.9501   62.1755 C   0  0  0  0  0  0  0  0  0  0  0  0
  -51.3358   59.7852   62.8080 C   0  0  0  0  0  0  0  0  0  0  0  0
  -51.4161   60.3098   64.2378 C   0  0  0  0  0  0  0  0  0  0  0  0
  -50.0727   60.3602   64.9480 C   0  0  0  0  0  0  0  0  0  0  0  0
  -49.9414   59.4489   66.1591 C   0  0  0  0  0  0  0  0  0  0  0  0
  -49.9113   57.9972   65.7916 C   0  0  0  0  0  0  0  0  0  0  0  0
  -46.3201   60.0728   61.5190 O   0  0  0  0  0  0  0  0  0  0  0  0
  -45.8339   61.0798   62.4336 C   0  0  0  0  0  0  0  0  0  0  0  0
  -44.7623   61.9408   61.7991 C   0  0  0  0  0  0  0  0  0  0  0  0
  -45.3307   63.1137   61.2009 O   0  0  0  0  0  0  0  0  0  0  0  0
  -45.7445   63.6590   61.8882 H   0  0  0  0  0  0  0  0  0  0  0  0
  -43.6881   62.3473   62.7806 C   0  0  0  0  0  0  0  0  0  0  0  0
  -42.5053   61.5209   62.6568 O   0  0  0  0  0  0  0  0  0  0  0  0
  -41.8633   60.4035   63.6134 P   0  0  0  0  0  0  0  0  0  0  0  0
  -40.4004   60.7687   63.8592 O   0  0  0  0  0  0  0  0  0  0  0  0
  -41.9121   59.0991   62.9173 O   0  0  0  0  0  0  0  0  0  0  0  0
  -41.4473   59.1679   62.0687 H   0  0  0  0  0  0  0  0  0  0  0  0
  -42.6418   60.3304   65.0604 O   0  0  0  0  0  0  0  0  0  0  0  0
  -42.9179   59.1223   65.8201 C   0  0  0  0  0  0  0  0  0  0  0  0
  -44.3882   59.0365   66.1469 C   0  0  0  0  0  0  0  0  0  0  0  0
  -45.1000   57.7611   65.7351 N   0  0  0  0  0  0  0  0  0  0  0  0
  -44.1697   56.8596   64.9888 C   0  0  0  0  0  0  0  0  0  0  0  0
  -46.2457   58.1195   64.8466 C   0  0  0  0  0  0  0  0  0  0  0  0
  -45.6161   57.0326   66.9431 C   0  0  0  0  0  0  0  0  0  0  0  0
 34 33  1  0  0  0
 34 35  1  0  0  0
 34 36  1  0  0  0
 34 37  1  0  0  0
 22 23  1  0  0  0
 22 25  1  0  0  0
 22 21  1  0  0  0
 27 26  1  0  0  0
 27 28  2  0  0  0
 27 31  1  0  0  0
 27 29  1  0  0  0
 25 26  1  0  0  0
 32 33  1  0  0  0
 32 31  1  0  0  0
 20 21  1  0  0  0
 20  2  1  0  0  0
  1  2  2  0  0  0
  2  3  1  0  0  0
  3  4  1  0  0  0
  4  5  1  0  0  0
  5  6  1  0  0  0
  6  7  1  0  0  0
  7  8  1  0  0  0
  8  9  1  0  0  0
  9 10  1  0  0  0
 10 11  2  0  0  0
 11 12  1  0  0  0
 12 13  1  0  0  0
 13 14  1  0  0  0
 14 15  1  0  0  0
 15 16  1  0  0  0
 16 17  1  0  0  0
 17 18  1  0  0  0
 18 19  1  0  0  0
 23 24  1  0  0  0
 29 30  1  0  0  0
M  CHG 1  28  -1
M  END
> <minimizedAffinity>
-7.60026

> <CNNscore>
0.3309606314

> <CNNaffinity>
6.3173494339

> <CNN_VS>
2.0907938480

> <CNNaffinity_variance>
0.9792318344

$$$$



 37 36  0  0  0  0  0  0  0  0999 V2000
  -41.5861   59.4175   62.1993 O   0  0  0  0  0  0  0  0  0  0  0  0
  -41.9769   58.4102   62.7352 C   0  0  0  0  0  0  0  0  0  0  0  0
  -43.2144   57.6537   62.3611 C   0  0  0  0  0  0  0  0  0  0  0  0
  -44.4869   58.2636   62.9368 C   0  0  0  0  0  0  0  0  0  0  0  0
  -45.3906   58.9150   61.9041 C   0  0  0  0  0  0  0  0  0  0  0  0
  -45.7989   57.9777   60.7812 C   0  0  0  0  0  0  0  0  0  0  0  0
  -46.2206   58.7127   59.5204 C   0  0  0  0  0  0  0  0  0  0  0  0
  -45.9996   57.8844   58.2744 C   0  0  0  0  0  0  0  0  0  0  0  0
  -46.7704   58.3516   57.0564 C   0  0  0  0  0  0  0  0  0  0  0  0
  -47.7801   57.3825   56.5732 C   0  0  0  0  0  0  0  0  0  0  0  0
  -48.9347   57.1141   57.1474 C   0  0  0  0  0  0  0  0  0  0  0  0
  -49.5002   57.7466   58.3773 C   0  0  0  0  0  0  0  0  0  0  0  0
  -49.5201   56.7377   59.5268 C   0  0  0  0  0  0  0  0  0  0  0  0
  -50.2022   57.2141   60.8008 C   0  0  0  0  0  0  0  0  0  0  0  0
  -49.2601   57.5328   61.9555 C   0  0  0  0  0  0  0  0  0  0  0  0
  -49.8257   58.5511   62.9399 C   0  0  0  0  0  0  0  0  0  0  0  0
  -50.6428   59.6512   62.2812 C   0  0  0  0  0  0  0  0  0  0  0  0
  -51.7890   60.2007   63.1171 C   0  0  0  0  0  0  0  0  0  0  0  0
  -51.3809   60.5187   64.5228 C   0  0  0  0  0  0  0  0  0  0  0  0
  -41.3484   57.8054   63.7475 O   0  0  0  0  0  0  0  0  0  0  0  0
  -39.9079   57.7143   63.6885 C   0  0  0  0  0  0  0  0  0  0  0  0
  -39.2527   58.4718   64.8239 C   0  0  0  0  0  0  0  0  0  0  0  0
  -38.0256   57.8450   65.2213 O   0  0  0  0  0  0  0  0  0  0  0  0
  -37.3972   57.8673   64.4827 H   0  0  0  0  0  0  0  0  0  0  0  0
  -38.9895   59.9192   64.4801 C   0  0  0  0  0  0  0  0  0  0  0  0
  -38.3689   60.6292   65.5792 O   0  0  0  0  0  0  0  0  0  0  0  0
  -36.9752   61.4148   65.7081 P   0  0  0  0  0  0  0  0  0  0  0  0
  -36.7496   61.7480   67.1819 O   0  0  0  0  0  0  0  0  0  0  0  0
  -37.0728   62.6807   64.9490 O   0  0  0  0  0  0  0  0  0  0  0  0
  -37.8205   63.2009   65.2826 H   0  0  0  0  0  0  0  0  0  0  0  0
  -35.7172   60.5005   65.1728 O   0  0  0  0  0  0  0  0  0  0  0  0
  -35.0862   60.5991   63.8670 C   0  0  0  0  0  0  0  0  0  0  0  0
  -35.6318   59.5387   62.9429 C   0  0  0  0  0  0  0  0  0  0  0  0
  -34.7681   58.3076   62.7404 N   0  0  0  0  0  0  0  0  0  0  0  0
  -33.3489   58.7001   62.4815 C   0  0  0  0  0  0  0  0  0  0  0  0
  -35.2852   57.5504   61.5615 C   0  0  0  0  0  0  0  0  0  0  0  0
  -34.8134   57.4267   63.9563 C   0  0  0  0  0  0  0  0  0  0  0  0
 34 33  1  0  0  0
 34 35  1  0  0  0
 34 36  1  0  0  0
 34 37  1  0  0  0
 22 23  1  0  0  0
 22 25  1  0  0  0
 22 21  1  0  0  0
 27 26  1  0  0  0
 27 28  2  0  0  0
 27 31  1  0  0  0
 27 29  1  0  0  0
 25 26  1  0  0  0
 32 33  1  0  0  0
 32 31  1  0  0  0
 20 21  1  0  0  0
 20  2  1  0  0  0
  1  2  2  0  0  0
  2  3  1  0  0  0
  3  4  1  0  0  0
  4  5  1  0  0  0
  5  6  1  0  0  0
  6  7  1  0  0  0
  7  8  1  0  0  0
  8  9  1  0  0  0
  9 10  1  0  0  0
 10 11  2  0  0  0
 11 12  1  0  0  0
 12 13  1  0  0  0
 13 14  1  0  0  0
 14 15  1  0  0  0
 15 16  1  0  0  0
 16 17  1  0  0  0
 17 18  1  0  0  0
 18 19  1  0  0  0
 23 24  1  0  0  0
 29 30  1  0  0  0
M  CHG 1  28  -1
M  END
> <minimizedAffinity>
-7.73502

> <CNNscore>
0.3141151071

> <CNNaffinity>
6.0295014381

> <CNN_VS>
1.8939574957

> <CNNaffinity_variance>
0.1560128927

$$$$



 37 36  0  0  0  0  0  0  0  0999 V2000
  -47.7512   57.4035   65.5096 O   0  0  0  0  0  0  0  0  0  0  0  0
  -47.4472   58.5114   65.8767 C   0  0  0  0  0  0  0  0  0  0  0  0
  -48.3034   59.4128   66.7123 C   0  0  0  0  0  0  0  0  0  0  0  0
  -49.7283   59.5420   66.1876 C   0  0  0  0  0  0  0  0  0  0  0  0
  -49.8402   60.2567   64.8519 C   0  0  0  0  0  0  0  0  0  0  0  0
  -51.2419   60.2309   64.2681 C   0  0  0  0  0  0  0  0  0  0  0  0
  -51.2710   59.7800   62.8179 C   0  0  0  0  0  0  0  0  0  0  0  0
  -50.4625   58.5215   62.5937 C   0  0  0  0  0  0  0  0  0  0  0  0
  -49.6574   58.5043   61.3102 C   0  0  0  0  0  0  0  0  0  0  0  0
  -49.6654   59.7900   60.5758 C   0  0  0  0  0  0  0  0  0  0  0  0
  -48.6769   60.6588   60.5222 C   0  0  0  0  0  0  0  0  0  0  0  0
  -47.3258   60.5292   61.1469 C   0  0  0  0  0  0  0  0  0  0  0  0
  -46.3581   59.8543   60.1734 C   0  0  0  0  0  0  0  0  0  0  0  0
  -45.9619   58.4292   60.5307 C   0  0  0  0  0  0  0  0  0  0  0  0
  -45.8795   57.4684   59.3507 C   0  0  0  0  0  0  0  0  0  0  0  0
  -46.0715   58.1468   57.9983 C   0  0  0  0  0  0  0  0  0  0  0  0
  -46.8918   57.3285   57.0137 C   0  0  0  0  0  0  0  0  0  0  0  0
  -48.0911   56.6053   57.6080 C   0  0  0  0  0  0  0  0  0  0  0  0
  -49.2810   57.4989   57.7783 C   0  0  0  0  0  0  0  0  0  0  0  0
  -46.2809   59.1013   65.5987 O   0  0  0  0  0  0  0  0  0  0  0  0
  -45.2744   58.3185   64.9197 C   0  0  0  0  0  0  0  0  0  0  0  0
  -44.5320   57.4107   65.8773 C   0  0  0  0  0  0  0  0  0  0  0  0
  -44.5221   56.0578   65.4019 O   0  0  0  0  0  0  0  0  0  0  0  0
  -44.0419   56.0143   64.5602 H   0  0  0  0  0  0  0  0  0  0  0  0
  -43.1133   57.8662   66.1265 C   0  0  0  0  0  0  0  0  0  0  0  0
  -42.7280   58.9397   65.2340 O   0  0  0  0  0  0  0  0  0  0  0  0
  -41.3410   59.7170   65.0148 P   0  0  0  0  0  0  0  0  0  0  0  0
  -41.1138   60.6356   66.2142 O   0  0  0  0  0  0  0  0  0  0  0  0
  -41.4523   60.5508   63.7979 O   0  0  0  0  0  0  0  0  0  0  0  0
  -42.2036   61.1576   63.8894 H   0  0  0  0  0  0  0  0  0  0  0  0
  -40.0765   58.6714   64.9009 O   0  0  0  0  0  0  0  0  0  0  0  0
  -39.8927   57.6648   63.8685 C   0  0  0  0  0  0  0  0  0  0  0  0
  -38.4354   57.5648   63.4913 C   0  0  0  0  0  0  0  0  0  0  0  0
  -38.0721   57.9782   62.0771 N   0  0  0  0  0  0  0  0  0  0  0  0
  -37.8222   59.4507   62.0097 C   0  0  0  0  0  0  0  0  0  0  0  0
  -39.2106   57.6371   61.1727 C   0  0  0  0  0  0  0  0  0  0  0  0
  -36.8380   57.2554   61.6178 C   0  0  0  0  0  0  0  0  0  0  0  0
 34 33  1  0  0  0
 34 35  1  0  0  0
 34 36  1  0  0  0
 34 37  1  0  0  0
 22 23  1  0  0  0
 22 25  1  0  0  0
 22 21  1  0  0  0
 27 26  1  0  0  0
 27 28  2  0  0  0
 27 31  1  0  0  0
 27 29  1  0  0  0
 25 26  1  0  0  0
 32 33  1  0  0  0
 32 31  1  0  0  0
 20 21  1  0  0  0
 20  2  1  0  0  0
  1  2  2  0  0  0
  2  3  1  0  0  0
  3  4  1  0  0  0
  4  5  1  0  0  0
  5  6  1  0  0  0
  6  7  1  0  0  0
  7  8  1  0  0  0
  8  9  1  0  0  0
  9 10  1  0  0  0
 10 11  2  0  0  0
 11 12  1  0  0  0
 12 13  1  0  0  0
 13 14  1  0  0  0
 14 15  1  0  0  0
 15 16  1  0  0  0
 16 17  1  0  0  0
 17 18  1  0  0  0
 18 19  1  0  0  0
 23 24  1  0  0  0
 29 30  1  0  0  0
M  CHG 1  28  -1
M  END
> <minimizedAffinity>
-7.32143

> <CNNscore>
0.3131550550

> <CNNaffinity>
6.2203741074

> <CNN_VS>
1.9479415417

> <CNNaffinity_variance>
0.6933793426

$$$$



 37 36  0  0  0  0  0  0  0  0999 V2000
  -45.7166   60.8656   64.5294 O   0  0  0  0  0  0  0  0  0  0  0  0
  -45.9321   60.0530   65.3943 C   0  0  0  0  0  0  0  0  0  0  0  0
  -47.0317   60.1373   66.4080 C   0  0  0  0  0  0  0  0  0  0  0  0
  -48.4209   60.1837   65.7830 C   0  0  0  0  0  0  0  0  0  0  0  0
  -49.2301   58.9108   65.9632 C   0  0  0  0  0  0  0  0  0  0  0  0
  -50.5492   58.9217   65.2108 C   0  0  0  0  0  0  0  0  0  0  0  0
  -50.9025   60.2905   64.6552 C   0  0  0  0  0  0  0  0  0  0  0  0
  -51.5839   60.2025   63.3077 C   0  0  0  0  0  0  0  0  0  0  0  0
  -50.8345   59.3930   62.2690 C   0  0  0  0  0  0  0  0  0  0  0  0
  -49.7829   60.1528   61.5556 C   0  0  0  0  0  0  0  0  0  0  0  0
  -48.4854   59.9398   61.6314 C   0  0  0  0  0  0  0  0  0  0  0  0
  -47.7897   58.8718   62.4112 C   0  0  0  0  0  0  0  0  0  0  0  0
  -46.4251   58.5699   61.7894 C   0  0  0  0  0  0  0  0  0  0  0  0
  -46.1724   59.2070   60.4308 C   0  0  0  0  0  0  0  0  0  0  0  0
  -46.1279   58.2320   59.2605 C   0  0  0  0  0  0  0  0  0  0  0  0
  -46.9581   58.6804   58.0622 C   0  0  0  0  0  0  0  0  0  0  0  0
  -48.4552   58.4936   58.2502 C   0  0  0  0  0  0  0  0  0  0  0  0
  -48.9088   57.0602   58.4825 C   0  0  0  0  0  0  0  0  0  0  0  0
  -49.6951   56.8988   59.7472 C   0  0  0  0  0  0  0  0  0  0  0  0
  -45.2195   58.9364   65.5705 O   0  0  0  0  0  0  0  0  0  0  0  0
  -43.7802   59.0540   65.6078 C   0  0  0  0  0  0  0  0  0  0  0  0
  -43.1092   57.6975   65.6495 C   0  0  0  0  0  0  0  0  0  0  0  0
  -43.7042   56.8585   66.6487 O   0  0  0  0  0  0  0  0  0  0  0  0
  -44.6329   56.6944   66.4219 H   0  0  0  0  0  0  0  0  0  0  0  0
  -43.1446   56.9915   64.3143 C   0  0  0  0  0  0  0  0  0  0  0  0
  -41.8151   56.7911   63.7760 O   0  0  0  0  0  0  0  0  0  0  0  0
  -40.7821   57.7831   63.0517 P   0  0  0  0  0  0  0  0  0  0  0  0
  -40.1067   58.6355   64.1248 O   0  0  0  0  0  0  0  0  0  0  0  0
  -41.5382   58.6771   62.1476 O   0  0  0  0  0  0  0  0  0  0  0  0
  -42.2127   59.1549   62.6551 H   0  0  0  0  0  0  0  0  0  0  0  0
  -39.6254   56.9520   62.2292 O   0  0  0  0  0  0  0  0  0  0  0  0
  -38.6481   57.5255   61.3189 C   0  0  0  0  0  0  0  0  0  0  0  0
  -37.2646   57.0286   61.6583 C   0  0  0  0  0  0  0  0  0  0  0  0
  -36.4610   57.8736   62.6293 N   0  0  0  0  0  0  0  0  0  0  0  0
  -36.6122   57.3560   64.0237 C   0  0  0  0  0  0  0  0  0  0  0  0
  -36.9692   59.2769   62.5746 C   0  0  0  0  0  0  0  0  0  0  0  0
  -35.0047   57.8572   62.2612 C   0  0  0  0  0  0  0  0  0  0  0  0
 34 33  1  0  0  0
 34 35  1  0  0  0
 34 36  1  0  0  0
 34 37  1  0  0  0
 22 23  1  0  0  0
 22 25  1  0  0  0
 22 21  1  0  0  0
 27 26  1  0  0  0
 27 28  2  0  0  0
 27 31  1  0  0  0
 27 29  1  0  0  0
 25 26  1  0  0  0
 32 33  1  0  0  0
 32 31  1  0  0  0
 20 21  1  0  0  0
 20  2  1  0  0  0
  1  2  2  0  0  0
  2  3  1  0  0  0
  3  4  1  0  0  0
  4  5  1  0  0  0
  5  6  1  0  0  0
  6  7  1  0  0  0
  7  8  1  0  0  0
  8  9  1  0  0  0
  9 10  1  0  0  0
 10 11  2  0  0  0
 11 12  1  0  0  0
 12 13  1  0  0  0
 13 14  1  0  0  0
 14 15  1  0  0  0
 15 16  1  0  0  0
 16 17  1  0  0  0
 17 18  1  0  0  0
 18 19  1  0  0  0
 23 24  1  0  0  0
 29 30  1  0  0  0
M  CHG 1  28  -1
M  END
> <minimizedAffinity>
-7.03460

> <CNNscore>
0.3089627922

> <CNNaffinity>
6.3710718155

> <CNN_VS>
1.9684240818

> <CNNaffinity_variance>
0.5296589732

$$$$



 37 36  0  0  0  0  0  0  0  0999 V2000
  -41.6614   59.2781   62.1694 O   0  0  0  0  0  0  0  0  0  0  0  0
  -42.0548   58.3061   62.7653 C   0  0  0  0  0  0  0  0  0  0  0  0
  -43.3061   57.5448   62.4515 C   0  0  0  0  0  0  0  0  0  0  0  0
  -44.5750   58.2795   62.8670 C   0  0  0  0  0  0  0  0  0  0  0  0
  -45.3226   58.9345   61.7183 C   0  0  0  0  0  0  0  0  0  0  0  0
  -45.6493   57.9770   60.5858 C   0  0  0  0  0  0  0  0  0  0  0  0
  -46.3291   58.6593   59.4112 C   0  0  0  0  0  0  0  0  0  0  0  0
  -46.0212   57.9770   58.0969 C   0  0  0  0  0  0  0  0  0  0  0  0
  -46.9243   58.3763   56.9475 C   0  0  0  0  0  0  0  0  0  0  0  0
  -47.8756   57.3202   56.5329 C   0  0  0  0  0  0  0  0  0  0  0  0
  -49.0147   57.0263   57.1251 C   0  0  0  0  0  0  0  0  0  0  0  0
  -49.6192   57.7083   58.3092 C   0  0  0  0  0  0  0  0  0  0  0  0
  -49.5776   56.7841   59.5273 C   0  0  0  0  0  0  0  0  0  0  0  0
  -50.2322   57.3344   60.7859 C   0  0  0  0  0  0  0  0  0  0  0  0
  -49.2728   57.6414   61.9295 C   0  0  0  0  0  0  0  0  0  0  0  0
  -49.8351   58.6272   62.9484 C   0  0  0  0  0  0  0  0  0  0  0  0
  -50.7054   59.7125   62.3347 C   0  0  0  0  0  0  0  0  0  0  0  0
  -51.8230   60.2330   63.2261 C   0  0  0  0  0  0  0  0  0  0  0  0
  -51.3767   60.4712   64.6359 C   0  0  0  0  0  0  0  0  0  0  0  0
  -41.4173   57.7500   63.7997 O   0  0  0  0  0  0  0  0  0  0  0  0
  -40.0384   57.3622   63.6123 C   0  0  0  0  0  0  0  0  0  0  0  0
  -39.0897   58.3170   64.3055 C   0  0  0  0  0  0  0  0  0  0  0  0
  -38.0570   57.6042   64.9997 O   0  0  0  0  0  0  0  0  0  0  0  0
  -37.5222   57.1068   64.3613 H   0  0  0  0  0  0  0  0  0  0  0  0
  -38.4632   59.3070   63.3517 C   0  0  0  0  0  0  0  0  0  0  0  0
  -37.4013   60.0636   63.9820 O   0  0  0  0  0  0  0  0  0  0  0  0
  -36.5475   61.3343   63.5002 P   0  0  0  0  0  0  0  0  0  0  0  0
  -36.8317   61.5660   62.0171 O   0  0  0  0  0  0  0  0  0  0  0  0
  -35.1094   61.0276   63.6614 O   0  0  0  0  0  0  0  0  0  0  0  0
  -34.8914   60.2265   63.1598 H   0  0  0  0  0  0  0  0  0  0  0  0
  -36.9600   62.6889   64.3369 O   0  0  0  0  0  0  0  0  0  0  0  0
  -36.3287   63.1627   65.5575 C   0  0  0  0  0  0  0  0  0  0  0  0
  -35.5204   64.4055   65.2780 C   0  0  0  0  0  0  0  0  0  0  0  0
  -34.0144   64.2325   65.2094 N   0  0  0  0  0  0  0  0  0  0  0  0
  -33.5967   62.9895   65.9276 C   0  0  0  0  0  0  0  0  0  0  0  0
  -33.3683   65.4104   65.8617 C   0  0  0  0  0  0  0  0  0  0  0  0
  -33.5591   64.1432   63.7807 C   0  0  0  0  0  0  0  0  0  0  0  0
 34 33  1  0  0  0
 34 35  1  0  0  0
 34 36  1  0  0  0
 34 37  1  0  0  0
 22 23  1  0  0  0
 22 25  1  0  0  0
 22 21  1  0  0  0
 27 26  1  0  0  0
 27 28  2  0  0  0
 27 31  1  0  0  0
 27 29  1  0  0  0
 25 26  1  0  0  0
 32 33  1  0  0  0
 32 31  1  0  0  0
 20 21  1  0  0  0
 20  2  1  0  0  0
  1  2  2  0  0  0
  2  3  1  0  0  0
  3  4  1  0  0  0
  4  5  1  0  0  0
  5  6  1  0  0  0
  6  7  1  0  0  0
  7  8  1  0  0  0
  8  9  1  0  0  0
  9 10  1  0  0  0
 10 11  2  0  0  0
 11 12  1  0  0  0
 12 13  1  0  0  0
 13 14  1  0  0  0
 14 15  1  0  0  0
 15 16  1  0  0  0
 16 17  1  0  0  0
 17 18  1  0  0  0
 18 19  1  0  0  0
 23 24  1  0  0  0
 29 30  1  0  0  0
M  CHG 1  28  -1
M  END
> <minimizedAffinity>
-7.66567

> <CNNscore>
0.2938240767

> <CNNaffinity>
5.6500959396

> <CNN_VS>
1.6601341963

> <CNNaffinity_variance>
0.5049590468

$$$$



 37 36  0  0  0  0  0  0  0  0999 V2000
  -47.2101   60.6544   65.5604 O   0  0  0  0  0  0  0  0  0  0  0  0
  -46.7043   59.9148   64.7531 C   0  0  0  0  0  0  0  0  0  0  0  0
  -47.0082   59.8945   63.2865 C   0  0  0  0  0  0  0  0  0  0  0  0
  -46.4041   58.6954   62.5656 C   0  0  0  0  0  0  0  0  0  0  0  0
  -45.4367   59.0578   61.4519 C   0  0  0  0  0  0  0  0  0  0  0  0
  -45.8264   58.4823   60.1017 C   0  0  0  0  0  0  0  0  0  0  0  0
  -46.8554   59.3287   59.3721 C   0  0  0  0  0  0  0  0  0  0  0  0
  -46.8784   59.0466   57.8864 C   0  0  0  0  0  0  0  0  0  0  0  0
  -46.1849   57.7645   57.4728 C   0  0  0  0  0  0  0  0  0  0  0  0
  -47.0989   56.7299   56.9375 C   0  0  0  0  0  0  0  0  0  0  0  0
  -47.7206   55.8055   57.6402 C   0  0  0  0  0  0  0  0  0  0  0  0
  -47.6791   55.6172   59.1219 C   0  0  0  0  0  0  0  0  0  0  0  0
  -49.0955   55.6587   59.6979 C   0  0  0  0  0  0  0  0  0  0  0  0
  -49.6687   57.0508   59.9194 C   0  0  0  0  0  0  0  0  0  0  0  0
  -49.5696   57.5682   61.3494 C   0  0  0  0  0  0  0  0  0  0  0  0
  -50.8290   58.2838   61.8269 C   0  0  0  0  0  0  0  0  0  0  0  0
  -50.5849   59.7132   62.2843 C   0  0  0  0  0  0  0  0  0  0  0  0
  -51.6030   60.2641   63.2714 C   0  0  0  0  0  0  0  0  0  0  0  0
  -51.1302   60.1949   64.6910 C   0  0  0  0  0  0  0  0  0  0  0  0
  -45.7765   59.0001   65.0501 O   0  0  0  0  0  0  0  0  0  0  0  0
  -44.7989   59.3348   66.0596 C   0  0  0  0  0  0  0  0  0  0  0  0
  -43.4007   59.4039   65.4829 C   0  0  0  0  0  0  0  0  0  0  0  0
  -43.4096   60.0021   64.1797 O   0  0  0  0  0  0  0  0  0  0  0  0
  -43.7205   60.9185   64.2467 H   0  0  0  0  0  0  0  0  0  0  0  0
  -42.4417   60.1568   66.3751 C   0  0  0  0  0  0  0  0  0  0  0  0
  -41.1143   59.5784   66.3478 O   0  0  0  0  0  0  0  0  0  0  0  0
  -39.8600   59.7982   65.3709 P   0  0  0  0  0  0  0  0  0  0  0  0
  -38.8564   60.7064   66.0794 O   0  0  0  0  0  0  0  0  0  0  0  0
  -40.3283   60.4807   64.1448 O   0  0  0  0  0  0  0  0  0  0  0  0
  -40.7589   61.3162   64.3842 H   0  0  0  0  0  0  0  0  0  0  0  0
  -39.1221   58.3736   65.0089 O   0  0  0  0  0  0  0  0  0  0  0  0
  -37.7903   58.2218   64.4464 C   0  0  0  0  0  0  0  0  0  0  0  0
  -37.8615   57.4942   63.1267 C   0  0  0  0  0  0  0  0  0  0  0  0
  -37.4892   58.2936   61.8918 N   0  0  0  0  0  0  0  0  0  0  0  0
  -38.5528   58.1713   60.8483 C   0  0  0  0  0  0  0  0  0  0  0  0
  -36.2077   57.7568   61.3441 C   0  0  0  0  0  0  0  0  0  0  0  0
  -37.3135   59.7449   62.2373 C   0  0  0  0  0  0  0  0  0  0  0  0
 34 33  1  0  0  0
 34 35  1  0  0  0
 34 36  1  0  0  0
 34 37  1  0  0  0
 22 23  1  0  0  0
 22 25  1  0  0  0
 22 21  1  0  0  0
 27 26  1  0  0  0
 27 28  2  0  0  0
 27 31  1  0  0  0
 27 29  1  0  0  0
 25 26  1  0  0  0
 32 33  1  0  0  0
 32 31  1  0  0  0
 20 21  1  0  0  0
 20  2  1  0  0  0
  1  2  2  0  0  0
  2  3  1  0  0  0
  3  4  1  0  0  0
  4  5  1  0  0  0
  5  6  1  0  0  0
  6  7  1  0  0  0
  7  8  1  0  0  0
  8  9  1  0  0  0
  9 10  1  0  0  0
 10 11  2  0  0  0
 11 12  1  0  0  0
 12 13  1  0  0  0
 13 14  1  0  0  0
 14 15  1  0  0  0
 15 16  1  0  0  0
 16 17  1  0  0  0
 17 18  1  0  0  0
 18 19  1  0  0  0
 23 24  1  0  0  0
 29 30  1  0  0  0
M  CHG 1  28  -1
M  END
> <minimizedAffinity>
-7.43684

> <CNNscore>
0.2647381425

> <CNNaffinity>
6.1741247177

> <CNN_VS>
1.6345262527

> <CNNaffinity_variance>
0.2337637842

$$$$



 37 36  0  0  0  0  0  0  0  0999 V2000
  -47.2462   59.5495   64.9135 O   0  0  0  0  0  0  0  0  0  0  0  0
  -47.9119   58.6323   65.3263 C   0  0  0  0  0  0  0  0  0  0  0  0
  -49.1742   58.7668   66.1214 C   0  0  0  0  0  0  0  0  0  0  0  0
  -50.4333   58.6675   65.2686 C   0  0  0  0  0  0  0  0  0  0  0  0
  -50.6775   59.8692   64.3721 C   0  0  0  0  0  0  0  0  0  0  0  0
  -50.7691   59.5150   62.8983 C   0  0  0  0  0  0  0  0  0  0  0  0
  -49.4753   59.7743   62.1456 C   0  0  0  0  0  0  0  0  0  0  0  0
  -49.7111   60.4805   60.8291 C   0  0  0  0  0  0  0  0  0  0  0  0
  -48.4516   60.9115   60.1054 C   0  0  0  0  0  0  0  0  0  0  0  0
  -47.2412   60.1544   60.4979 C   0  0  0  0  0  0  0  0  0  0  0  0
  -46.5376   59.3587   59.7192 C   0  0  0  0  0  0  0  0  0  0  0  0
  -46.7720   59.0737   58.2713 C   0  0  0  0  0  0  0  0  0  0  0  0
  -45.9866   57.8323   57.8450 C   0  0  0  0  0  0  0  0  0  0  0  0
  -46.5975   57.0350   56.7020 C   0  0  0  0  0  0  0  0  0  0  0  0
  -47.0771   55.6376   57.0754 C   0  0  0  0  0  0  0  0  0  0  0  0
  -48.4147   55.6282   57.8081 C   0  0  0  0  0  0  0  0  0  0  0  0
  -48.2870   55.7581   59.3176 C   0  0  0  0  0  0  0  0  0  0  0  0
  -49.2933   56.6880   59.9788 C   0  0  0  0  0  0  0  0  0  0  0  0
  -49.9668   57.6022   59.0020 C   0  0  0  0  0  0  0  0  0  0  0  0
  -47.6242   57.3435   65.1217 O   0  0  0  0  0  0  0  0  0  0  0  0
  -47.1596   56.5693   66.2494 C   0  0  0  0  0  0  0  0  0  0  0  0
  -45.9275   57.1832   66.8796 C   0  0  0  0  0  0  0  0  0  0  0  0
  -45.7819   56.7627   68.2428 O   0  0  0  0  0  0  0  0  0  0  0  0
  -45.6512   55.8020   68.2726 H   0  0  0  0  0  0  0  0  0  0  0  0
  -44.6640   56.8614   66.1166 C   0  0  0  0  0  0  0  0  0  0  0  0
  -44.1010   58.0378   65.4868 O   0  0  0  0  0  0  0  0  0  0  0  0
  -43.9932   58.4945   63.9520 P   0  0  0  0  0  0  0  0  0  0  0  0
  -43.9507   60.0211   63.9099 O   0  0  0  0  0  0  0  0  0  0  0  0
  -45.2040   58.0375   63.2355 O   0  0  0  0  0  0  0  0  0  0  0  0
  -45.9926   58.3966   63.6715 H   0  0  0  0  0  0  0  0  0  0  0  0
  -42.6303   57.9066   63.2434 O   0  0  0  0  0  0  0  0  0  0  0  0
  -41.2741   58.3680   63.4897 C   0  0  0  0  0  0  0  0  0  0  0  0
  -40.2782   57.3602   62.9714 C   0  0  0  0  0  0  0  0  0  0  0  0
  -38.9329   57.9043   62.5279 N   0  0  0  0  0  0  0  0  0  0  0  0
  -38.1705   58.4352   63.6992 C   0  0  0  0  0  0  0  0  0  0  0  0
  -39.1638   59.0142   61.5556 C   0  0  0  0  0  0  0  0  0  0  0  0
  -38.1203   56.8264   61.8687 C   0  0  0  0  0  0  0  0  0  0  0  0
 34 33  1  0  0  0
 34 35  1  0  0  0
 34 36  1  0  0  0
 34 37  1  0  0  0
 22 23  1  0  0  0
 22 25  1  0  0  0
 22 21  1  0  0  0
 27 26  1  0  0  0
 27 28  2  0  0  0
 27 31  1  0  0  0
 27 29  1  0  0  0
 25 26  1  0  0  0
 32 33  1  0  0  0
 32 31  1  0  0  0
 20 21  1  0  0  0
 20  2  1  0  0  0
  1  2  2  0  0  0
  2  3  1  0  0  0
  3  4  1  0  0  0
  4  5  1  0  0  0
  5  6  1  0  0  0
  6  7  1  0  0  0
  7  8  1  0  0  0
  8  9  1  0  0  0
  9 10  1  0  0  0
 10 11  2  0  0  0
 11 12  1  0  0  0
 12 13  1  0  0  0
 13 14  1  0  0  0
 14 15  1  0  0  0
 15 16  1  0  0  0
 16 17  1  0  0  0
 17 18  1  0  0  0
 18 19  1  0  0  0
 23 24  1  0  0  0
 29 30  1  0  0  0
M  CHG 1  28  -1
M  END
> <minimizedAffinity>
-7.28148

> <CNNscore>
0.2593677640

> <CNNaffinity>
6.3121771812

> <CNN_VS>
1.6371753216

> <CNNaffinity_variance>
0.4692945480

$$$$
