


 25 25  0  0  0  0  0  0  0  0999 V2000
    1.1672    2.6109    3.7608 C   0  0  0  0  0  0  0  0  0  0  0  0
    0.1638    1.5626    3.2751 C   0  0  0  0  0  0  0  0  0  0  0  0
    0.6628    0.9481    1.9663 C   0  0  0  0  0  0  0  0  0  0  0  0
    0.5255   -0.5744    2.0334 C   0  0  0  0  0  0  0  0  0  0  0  0
   -0.0784   -0.9734    3.3820 C   0  0  0  0  0  0  0  0  0  0  0  0
    1.1592   -2.0202    5.2081 C   0  0  0  0  0  0  0  0  0  0  0  0
    0.7223   -2.1042    3.9757 C   0  0  0  0  0  0  0  0  0  0  0  0
    0.7228   -0.8771    6.0861 C   0  0  0  0  0  0  0  0  0  0  0  0
    1.8762    0.9370    7.2444 C   0  0  0  0  0  0  0  0  0  0  0  0
    1.9255   -0.2854    6.7745 C   0  0  0  0  0  0  0  0  0  0  0  0
    0.5703    1.6890    7.2512 C   0  0  0  0  0  0  0  0  0  0  0  0
    2.2506    3.5380    7.2254 C   0  0  0  0  0  0  0  0  0  0  0  0
    0.8248    3.1511    7.6236 C   0  0  0  0  0  0  0  0  0  0  0  0
    2.4900    2.4371    3.0119 C   0  0  0  0  0  0  0  0  0  0  0  0
    3.6560    2.6195    3.9859 C   0  0  0  0  0  0  0  0  0  0  0  0
    4.2224    1.2717    4.3499 C   0  0  0  0  0  0  0  0  0  0  0  0
    3.8880    0.1562    3.6041 C   0  0  0  0  0  0  0  0  0  0  0  0
    4.4069   -1.0813    3.9351 C   0  0  0  0  0  0  0  0  0  0  0  0
    5.2619   -1.2098    5.0147 C   0  0  0  0  0  0  0  0  0  0  0  0
    5.6018   -0.0960    5.7650 C   0  0  0  0  0  0  0  0  0  0  0  0
    6.4444   -0.2203    6.8262 O   0  0  0  0  0  0  0  0  0  0  0  0
    5.0833    1.1514    5.4284 C   0  0  0  0  0  0  0  0  0  0  0  0
    5.4142    2.2470    6.1629 O   0  0  0  0  0  0  0  0  0  0  0  0
    6.7928   -1.0603    7.0519 H   0  0  0  0  0  0  0  0  0  0  0  0
    5.0649    3.0863    5.9358 H   0  0  0  0  0  0  0  0  0  0  0  0
 12 13  1  0  0  0
 13 11  1  0  0  0
 11  9  1  0  0  0
  9 10  2  0  0  0
 10  8  1  0  0  0
  8  6  1  0  0  0
  6  7  2  0  0  0
  7  5  1  0  0  0
  5  4  1  0  0  0
  4  3  1  0  0  0
  3  2  1  0  0  0
  2  1  1  0  0  0
  1 14  1  0  0  0
 14 15  1  0  0  0
 15 16  1  0  0  0
 16 17  2  0  0  0
 16 22  1  0  0  0
 17 18  1  0  0  0
 18 19  2  0  0  0
 19 20  1  0  0  0
 20 22  2  0  0  0
 20 21  1  0  0  0
 22 23  1  0  0  0
 21 24  1  0  0  0
 23 25  1  0  0  0
M  END
> <minimizedAffinity>
0.00000

> <CNNscore>
0.7495719194

> <CNNaffinity>
4.5331816673

> <CNN_VS>
3.3979456425

> <CNNaffinity_variance>
0.8655462265

$$$$



 25 25  0  0  0  0  0  0  0  0999 V2000
   -2.8855    1.5199   -0.9431 C   0  0  0  0  0  0  0  0  0  0  0  0
   -3.0570    0.1335   -0.3186 C   0  0  0  0  0  0  0  0  0  0  0  0
   -1.9686   -0.0898    0.7325 C   0  0  0  0  0  0  0  0  0  0  0  0
   -1.2821    1.2415    1.0457 C   0  0  0  0  0  0  0  0  0  0  0  0
   -1.2690    1.4651    2.5598 C   0  0  0  0  0  0  0  0  0  0  0  0
   -2.9300    2.7553    3.8000 C   0  0  0  0  0  0  0  0  0  0  0  0
   -2.6746    1.7175    3.0421 C   0  0  0  0  0  0  0  0  0  0  0  0
   -1.8615    3.7864    4.0509 C   0  0  0  0  0  0  0  0  0  0  0  0
   -1.9423    5.7924    2.6607 C   0  0  0  0  0  0  0  0  0  0  0  0
   -2.3946    5.1545    3.7124 C   0  0  0  0  0  0  0  0  0  0  0  0
   -1.0195    5.0938    1.6955 C   0  0  0  0  0  0  0  0  0  0  0  0
   -0.7212    4.5258   -0.7192 C   0  0  0  0  0  0  0  0  0  0  0  0
   -1.7428    4.8744    0.3652 C   0  0  0  0  0  0  0  0  0  0  0  0
   -4.2458    2.2156   -1.0233 C   0  0  0  0  0  0  0  0  0  0  0  0
   -5.2067    1.5753   -0.0192 C   0  0  0  0  0  0  0  0  0  0  0  0
   -5.5638    2.5798    1.0454 C   0  0  0  0  0  0  0  0  0  0  0  0
   -5.1739    3.8996    0.9103 C   0  0  0  0  0  0  0  0  0  0  0  0
   -5.5009    4.8235    1.8848 C   0  0  0  0  0  0  0  0  0  0  0  0
   -6.2186    4.4317    3.0004 C   0  0  0  0  0  0  0  0  0  0  0  0
   -6.6133    3.1113    3.1411 C   0  0  0  0  0  0  0  0  0  0  0  0
   -7.3211    2.7246    4.2370 O   0  0  0  0  0  0  0  0  0  0  0  0
   -6.2884    2.1819    2.1570 C   0  0  0  0  0  0  0  0  0  0  0  0
   -6.6737    0.8846    2.2918 O   0  0  0  0  0  0  0  0  0  0  0  0
   -7.5393    3.3509    4.8989 H   0  0  0  0  0  0  0  0  0  0  0  0
   -6.4547    0.2596    1.6290 H   0  0  0  0  0  0  0  0  0  0  0  0
 12 13  1  0  0  0
 13 11  1  0  0  0
 11  9  1  0  0  0
  9 10  2  0  0  0
 10  8  1  0  0  0
  8  6  1  0  0  0
  6  7  2  0  0  0
  7  5  1  0  0  0
  5  4  1  0  0  0
  4  3  1  0  0  0
  3  2  1  0  0  0
  2  1  1  0  0  0
  1 14  1  0  0  0
 14 15  1  0  0  0
 15 16  1  0  0  0
 16 17  2  0  0  0
 16 22  1  0  0  0
 17 18  1  0  0  0
 18 19  2  0  0  0
 19 20  1  0  0  0
 20 22  2  0  0  0
 20 21  1  0  0  0
 22 23  1  0  0  0
 21 24  1  0  0  0
 23 25  1  0  0  0
M  END
> <minimizedAffinity>
0.00000

> <CNNscore>
0.7448617816

> <CNNaffinity>
4.5740542412

> <CNN_VS>
3.4070382118

> <CNNaffinity_variance>
1.1700795889

$$$$



 25 25  0  0  0  0  0  0  0  0999 V2000
    2.3195   -0.7753   -0.1181 C   0  0  0  0  0  0  0  0  0  0  0  0
    3.7388   -0.8033    0.4533 C   0  0  0  0  0  0  0  0  0  0  0  0
    4.4430   -2.0850    0.0050 C   0  0  0  0  0  0  0  0  0  0  0  0
    5.8909   -1.7652   -0.3730 C   0  0  0  0  0  0  0  0  0  0  0  0
    6.3009   -0.4329    0.2589 C   0  0  0  0  0  0  0  0  0  0  0  0
    7.1507    1.5692   -0.8509 C   0  0  0  0  0  0  0  0  0  0  0  0
    7.2669    0.2792   -0.6533 C   0  0  0  0  0  0  0  0  0  0  0  0
    6.1646    2.3697   -0.0418 C   0  0  0  0  0  0  0  0  0  0  0  0
    3.8542    3.0248   -0.4844 C   0  0  0  0  0  0  0  0  0  0  0  0
    5.0728    2.8821   -0.9450 C   0  0  0  0  0  0  0  0  0  0  0  0
    3.5787    2.8419    0.9858 C   0  0  0  0  0  0  0  0  0  0  0  0
    1.3324    2.8925   -0.1072 C   0  0  0  0  0  0  0  0  0  0  0  0
    2.0792    2.6269    1.2017 C   0  0  0  0  0  0  0  0  0  0  0  0
    2.3600   -1.1379   -1.6039 C   0  0  0  0  0  0  0  0  0  0  0  0
    1.9132    0.0662   -2.4358 C   0  0  0  0  0  0  0  0  0  0  0  0
    3.0943    0.6247   -3.1862 C   0  0  0  0  0  0  0  0  0  0  0  0
    4.2967   -0.0583   -3.1915 C   0  0  0  0  0  0  0  0  0  0  0  0
    5.3815    0.4511   -3.8798 C   0  0  0  0  0  0  0  0  0  0  0  0
    5.2698    1.6472   -4.5653 C   0  0  0  0  0  0  0  0  0  0  0  0
    4.0676    2.3357   -4.5650 C   0  0  0  0  0  0  0  0  0  0  0  0
    3.9553    3.5115   -5.2406 O   0  0  0  0  0  0  0  0  0  0  0  0
    2.9734    1.8198   -3.8761 C   0  0  0  0  0  0  0  0  0  0  0  0
    1.7918    2.4930   -3.8730 O   0  0  0  0  0  0  0  0  0  0  0  0
    4.6924    3.8578   -5.7040 H   0  0  0  0  0  0  0  0  0  0  0  0
    1.0557    2.1452   -3.4090 H   0  0  0  0  0  0  0  0  0  0  0  0
 12 13  1  0  0  0
 13 11  1  0  0  0
 11  9  1  0  0  0
  9 10  2  0  0  0
 10  8  1  0  0  0
  8  6  1  0  0  0
  6  7  2  0  0  0
  7  5  1  0  0  0
  5  4  1  0  0  0
  4  3  1  0  0  0
  3  2  1  0  0  0
  2  1  1  0  0  0
  1 14  1  0  0  0
 14 15  1  0  0  0
 15 16  1  0  0  0
 16 17  2  0  0  0
 16 22  1  0  0  0
 17 18  1  0  0  0
 18 19  2  0  0  0
 19 20  1  0  0  0
 20 22  2  0  0  0
 20 21  1  0  0  0
 22 23  1  0  0  0
 21 24  1  0  0  0
 23 25  1  0  0  0
M  END
> <minimizedAffinity>
0.00000

> <CNNscore>
0.7439535856

> <CNNaffinity>
4.5160317421

> <CNN_VS>
3.3597180843

> <CNNaffinity_variance>
0.9308751822

$$$$



 25 25  0  0  0  0  0  0  0  0999 V2000
   -3.9091    1.9056    3.6556 C   0  0  0  0  0  0  0  0  0  0  0  0
   -2.5095    2.5240    3.6399 C   0  0  0  0  0  0  0  0  0  0  0  0
   -1.6301    1.7683    2.6422 C   0  0  0  0  0  0  0  0  0  0  0  0
   -2.2614    0.4088    2.3345 C   0  0  0  0  0  0  0  0  0  0  0  0
   -2.2067    0.1503    0.8269 C   0  0  0  0  0  0  0  0  0  0  0  0
   -3.6624    1.4885   -0.6056 C   0  0  0  0  0  0  0  0  0  0  0  0
   -2.5528    1.4175    0.0874 C   0  0  0  0  0  0  0  0  0  0  0  0
   -4.6715    0.3732   -0.5290 C   0  0  0  0  0  0  0  0  0  0  0  0
   -6.3131    0.0330    1.2464 C   0  0  0  0  0  0  0  0  0  0  0  0
   -5.8463    0.8154    0.3044 C   0  0  0  0  0  0  0  0  0  0  0  0
   -5.5745   -1.2287    1.6121 C   0  0  0  0  0  0  0  0  0  0  0  0
   -6.6751   -0.5976    3.7646 C   0  0  0  0  0  0  0  0  0  0  0  0
   -5.5050   -1.3567    3.1353 C   0  0  0  0  0  0  0  0  0  0  0  0
   -4.9303    2.9419    3.1820 C   0  0  0  0  0  0  0  0  0  0  0  0
   -4.2129    4.2533    2.8550 C   0  0  0  0  0  0  0  0  0  0  0  0
   -4.3596    4.5535    1.3858 C   0  0  0  0  0  0  0  0  0  0  0  0
   -5.5844    4.3901    0.7650 C   0  0  0  0  0  0  0  0  0  0  0  0
   -5.7221    4.6656   -0.5823 C   0  0  0  0  0  0  0  0  0  0  0  0
   -4.6349    5.1048   -1.3161 C   0  0  0  0  0  0  0  0  0  0  0  0
   -3.4056    5.2717   -0.6999 C   0  0  0  0  0  0  0  0  0  0  0  0
   -2.3355    5.7055   -1.4198 O   0  0  0  0  0  0  0  0  0  0  0  0
   -3.2682    4.9992    0.6584 C   0  0  0  0  0  0  0  0  0  0  0  0
   -2.0628    5.1614    1.2669 O   0  0  0  0  0  0  0  0  0  0  0  0
   -2.4291    5.8887   -2.3339 H   0  0  0  0  0  0  0  0  0  0  0  0
   -1.9710    4.9778    2.1811 H   0  0  0  0  0  0  0  0  0  0  0  0
 12 13  1  0  0  0
 13 11  1  0  0  0
 11  9  1  0  0  0
  9 10  2  0  0  0
 10  8  1  0  0  0
  8  6  1  0  0  0
  6  7  2  0  0  0
  7  5  1  0  0  0
  5  4  1  0  0  0
  4  3  1  0  0  0
  3  2  1  0  0  0
  2  1  1  0  0  0
  1 14  1  0  0  0
 14 15  1  0  0  0
 15 16  1  0  0  0
 16 17  2  0  0  0
 16 22  1  0  0  0
 17 18  1  0  0  0
 18 19  2  0  0  0
 19 20  1  0  0  0
 20 22  2  0  0  0
 20 21  1  0  0  0
 22 23  1  0  0  0
 21 24  1  0  0  0
 23 25  1  0  0  0
M  END
> <minimizedAffinity>
0.00000

> <CNNscore>
0.7422871590

> <CNNaffinity>
4.4693918228

> <CNN_VS>
3.3175721169

> <CNNaffinity_variance>
0.7359560728

$$$$



 25 25  0  0  0  0  0  0  0  0999 V2000
    4.6141   -1.9021    1.6053 C   0  0  0  0  0  0  0  0  0  0  0  0
    3.7863   -0.8950    2.4067 C   0  0  0  0  0  0  0  0  0  0  0  0
    4.7200   -0.0241    3.2489 C   0  0  0  0  0  0  0  0  0  0  0  0
    6.1517   -0.1579    2.7254 C   0  0  0  0  0  0  0  0  0  0  0  0
    7.1131   -0.3215    3.9049 C   0  0  0  0  0  0  0  0  0  0  0  0
    6.9145   -2.4949    4.9999 C   0  0  0  0  0  0  0  0  0  0  0  0
    6.5052   -1.2527    4.9227 C   0  0  0  0  0  0  0  0  0  0  0  0
    8.1031   -2.9483    4.1938 C   0  0  0  0  0  0  0  0  0  0  0  0
    7.8540   -3.8348    1.9322 C   0  0  0  0  0  0  0  0  0  0  0  0
    7.6714   -4.0120    3.2178 C   0  0  0  0  0  0  0  0  0  0  0  0
    8.6466   -2.6512    1.4402 C   0  0  0  0  0  0  0  0  0  0  0  0
    7.3157   -3.2739   -0.5806 C   0  0  0  0  0  0  0  0  0  0  0  0
    8.0319   -2.1296    0.1398 C   0  0  0  0  0  0  0  0  0  0  0  0
    4.1804   -3.3236    1.9689 C   0  0  0  0  0  0  0  0  0  0  0  0
    3.0909   -3.2663    3.0418 C   0  0  0  0  0  0  0  0  0  0  0  0
    3.6070   -3.8836    4.3156 C   0  0  0  0  0  0  0  0  0  0  0  0
    4.3312   -5.0607    4.2703 C   0  0  0  0  0  0  0  0  0  0  0  0
    4.8067   -5.6287    5.4371 C   0  0  0  0  0  0  0  0  0  0  0  0
    4.5591   -5.0229    6.6556 C   0  0  0  0  0  0  0  0  0  0  0  0
    3.8354   -3.8429    6.7077 C   0  0  0  0  0  0  0  0  0  0  0  0
    3.5926   -3.2445    7.9054 O   0  0  0  0  0  0  0  0  0  0  0  0
    3.3609   -3.2680    5.5319 C   0  0  0  0  0  0  0  0  0  0  0  0
    2.6496   -2.1099    5.5790 O   0  0  0  0  0  0  0  0  0  0  0  0
    3.9124   -3.6322    8.6962 H   0  0  0  0  0  0  0  0  0  0  0  0
    2.3305   -1.7235    4.7873 H   0  0  0  0  0  0  0  0  0  0  0  0
 12 13  1  0  0  0
 13 11  1  0  0  0
 11  9  1  0  0  0
  9 10  2  0  0  0
 10  8  1  0  0  0
  8  6  1  0  0  0
  6  7  2  0  0  0
  7  5  1  0  0  0
  5  4  1  0  0  0
  4  3  1  0  0  0
  3  2  1  0  0  0
  2  1  1  0  0  0
  1 14  1  0  0  0
 14 15  1  0  0  0
 15 16  1  0  0  0
 16 17  2  0  0  0
 16 22  1  0  0  0
 17 18  1  0  0  0
 18 19  2  0  0  0
 19 20  1  0  0  0
 20 22  2  0  0  0
 20 21  1  0  0  0
 22 23  1  0  0  0
 21 24  1  0  0  0
 23 25  1  0  0  0
M  END
> <minimizedAffinity>
0.00000

> <CNNscore>
0.7415837646

> <CNNaffinity>
4.5794138908

> <CNN_VS>
3.3960189819

> <CNNaffinity_variance>
1.2388918400

$$$$



 25 25  0  0  0  0  0  0  0  0999 V2000
    2.5120    3.2153    1.1768 C   0  0  0  0  0  0  0  0  0  0  0  0
    3.0571    4.1351    0.0820 C   0  0  0  0  0  0  0  0  0  0  0  0
    2.3465    3.8321   -1.2381 C   0  0  0  0  0  0  0  0  0  0  0  0
    3.3273    4.0155   -2.3983 C   0  0  0  0  0  0  0  0  0  0  0  0
    4.7594    4.0304   -1.8584 C   0  0  0  0  0  0  0  0  0  0  0  0
    6.9127    3.0778   -2.5047 C   0  0  0  0  0  0  0  0  0  0  0  0
    5.6723    3.3372   -2.8374 C   0  0  0  0  0  0  0  0  0  0  0  0
    7.3800    3.3163   -1.0931 C   0  0  0  0  0  0  0  0  0  0  0  0
    7.1420    1.7525    0.7672 C   0  0  0  0  0  0  0  0  0  0  0  0
    7.6409    1.9935   -0.4204 C   0  0  0  0  0  0  0  0  0  0  0  0
    6.1698    2.7232    1.3867 C   0  0  0  0  0  0  0  0  0  0  0  0
    6.5553    0.9762    3.1309 C   0  0  0  0  0  0  0  0  0  0  0  0
    5.9354    2.3469    2.8512 C   0  0  0  0  0  0  0  0  0  0  0  0
    2.1509    1.8580    0.5700 C   0  0  0  0  0  0  0  0  0  0  0  0
    2.8955    0.7499    1.3180 C   0  0  0  0  0  0  0  0  0  0  0  0
    3.8387    0.0519    0.3729 C   0  0  0  0  0  0  0  0  0  0  0  0
    4.0162    0.5354   -0.9104 C   0  0  0  0  0  0  0  0  0  0  0  0
    4.8814   -0.1023   -1.7791 C   0  0  0  0  0  0  0  0  0  0  0  0
    5.5728   -1.2280   -1.3692 C   0  0  0  0  0  0  0  0  0  0  0  0
    5.4005   -1.7166   -0.0844 C   0  0  0  0  0  0  0  0  0  0  0  0
    6.0813   -2.8227    0.3212 O   0  0  0  0  0  0  0  0  0  0  0  0
    4.5329   -1.0711    0.7923 C   0  0  0  0  0  0  0  0  0  0  0  0
    4.3606   -1.5481    2.0541 O   0  0  0  0  0  0  0  0  0  0  0  0
    6.6650   -3.2564   -0.2697 H   0  0  0  0  0  0  0  0  0  0  0  0
    3.7765   -1.1132    2.6437 H   0  0  0  0  0  0  0  0  0  0  0  0
 12 13  1  0  0  0
 13 11  1  0  0  0
 11  9  1  0  0  0
  9 10  2  0  0  0
 10  8  1  0  0  0
  8  6  1  0  0  0
  6  7  2  0  0  0
  7  5  1  0  0  0
  5  4  1  0  0  0
  4  3  1  0  0  0
  3  2  1  0  0  0
  2  1  1  0  0  0
  1 14  1  0  0  0
 14 15  1  0  0  0
 15 16  1  0  0  0
 16 17  2  0  0  0
 16 22  1  0  0  0
 17 18  1  0  0  0
 18 19  2  0  0  0
 19 20  1  0  0  0
 20 22  2  0  0  0
 20 21  1  0  0  0
 22 23  1  0  0  0
 21 24  1  0  0  0
 23 25  1  0  0  0
M  END
> <minimizedAffinity>
0.00000

> <CNNscore>
0.7407289147

> <CNNaffinity>
4.6007580757

> <CNN_VS>
3.4079146385

> <CNNaffinity_variance>
1.1486539841

$$$$



 25 25  0  0  0  0  0  0  0  0999 V2000
    4.8785    0.3502    1.3624 C   0  0  0  0  0  0  0  0  0  0  0  0
    4.9897    1.2477    2.5967 C   0  0  0  0  0  0  0  0  0  0  0  0
    3.6140    1.3870    3.2506 C   0  0  0  0  0  0  0  0  0  0  0  0
    3.7652    1.3306    4.7723 C   0  0  0  0  0  0  0  0  0  0  0  0
    5.2492    1.4010    5.1407 C   0  0  0  0  0  0  0  0  0  0  0  0
    6.5777   -0.3541    6.1974 C   0  0  0  0  0  0  0  0  0  0  0  0
    5.5342    0.4356    6.2627 C   0  0  0  0  0  0  0  0  0  0  0  0
    7.5837   -0.1835    5.0898 C   0  0  0  0  0  0  0  0  0  0  0  0
    7.9945   -1.4127    3.0202 C   0  0  0  0  0  0  0  0  0  0  0  0
    7.6693   -1.4570    4.2889 C   0  0  0  0  0  0  0  0  0  0  0  0
    8.4488   -0.1146    2.4041 C   0  0  0  0  0  0  0  0  0  0  0  0
    7.9699   -1.6416    0.4854 C   0  0  0  0  0  0  0  0  0  0  0  0
    8.4962   -0.2606    0.8818 C   0  0  0  0  0  0  0  0  0  0  0  0
    3.7997   -0.7090    1.5968 C   0  0  0  0  0  0  0  0  0  0  0  0
    4.3893   -2.1005    1.3565 C   0  0  0  0  0  0  0  0  0  0  0  0
    4.6007   -2.7919    2.6783 C   0  0  0  0  0  0  0  0  0  0  0  0
    4.0408   -2.2697    3.8298 C   0  0  0  0  0  0  0  0  0  0  0  0
    4.2323   -2.9023    5.0436 C   0  0  0  0  0  0  0  0  0  0  0  0
    4.9861   -4.0600    5.1122 C   0  0  0  0  0  0  0  0  0  0  0  0
    5.5486   -4.5890    3.9620 C   0  0  0  0  0  0  0  0  0  0  0  0
    6.2888   -5.7288    4.0273 O   0  0  0  0  0  0  0  0  0  0  0  0
    5.3514   -3.9546    2.7386 C   0  0  0  0  0  0  0  0  0  0  0  0
    5.9025   -4.4705    1.6075 O   0  0  0  0  0  0  0  0  0  0  0  0
    6.4210   -6.1551    4.8513 H   0  0  0  0  0  0  0  0  0  0  0  0
    5.7693   -4.0430    0.7844 H   0  0  0  0  0  0  0  0  0  0  0  0
 12 13  1  0  0  0
 13 11  1  0  0  0
 11  9  1  0  0  0
  9 10  2  0  0  0
 10  8  1  0  0  0
  8  6  1  0  0  0
  6  7  2  0  0  0
  7  5  1  0  0  0
  5  4  1  0  0  0
  4  3  1  0  0  0
  3  2  1  0  0  0
  2  1  1  0  0  0
  1 14  1  0  0  0
 14 15  1  0  0  0
 15 16  1  0  0  0
 16 17  2  0  0  0
 16 22  1  0  0  0
 17 18  1  0  0  0
 18 19  2  0  0  0
 19 20  1  0  0  0
 20 22  2  0  0  0
 20 21  1  0  0  0
 22 23  1  0  0  0
 21 24  1  0  0  0
 23 25  1  0  0  0
M  END
> <minimizedAffinity>
0.00000

> <CNNscore>
0.7403459549

> <CNNaffinity>
4.5981664658

> <CNN_VS>
3.4042339325

> <CNNaffinity_variance>
1.1999242306

$$$$



 25 25  0  0  0  0  0  0  0  0999 V2000
   -2.5878    0.5023    3.6227 C   0  0  0  0  0  0  0  0  0  0  0  0
   -1.4522    1.0452    2.7524 C   0  0  0  0  0  0  0  0  0  0  0  0
   -1.9872    1.3578    1.3540 C   0  0  0  0  0  0  0  0  0  0  0  0
   -1.3419    2.6456    0.8377 C   0  0  0  0  0  0  0  0  0  0  0  0
   -0.5459    3.3055    1.9663 C   0  0  0  0  0  0  0  0  0  0  0  0
   -0.1939    5.5953    2.7374 C   0  0  0  0  0  0  0  0  0  0  0  0
   -0.5057    4.7963    1.7469 C   0  0  0  0  0  0  0  0  0  0  0  0
    0.2872    5.0229    4.0446 C   0  0  0  0  0  0  0  0  0  0  0  0
   -1.2648    4.6178    5.8858 C   0  0  0  0  0  0  0  0  0  0  0  0
   -0.6122    5.4915    5.1591 C   0  0  0  0  0  0  0  0  0  0  0  0
   -0.9874    3.1455    5.7229 C   0  0  0  0  0  0  0  0  0  0  0  0
   -2.2470    3.3370    7.8722 C   0  0  0  0  0  0  0  0  0  0  0  0
   -1.7189    2.3638    6.8161 C   0  0  0  0  0  0  0  0  0  0  0  0
   -3.8988    1.1918    3.2398 C   0  0  0  0  0  0  0  0  0  0  0  0
   -4.5456    1.7898    4.4911 C   0  0  0  0  0  0  0  0  0  0  0  0
   -4.4798    3.2934    4.4212 C   0  0  0  0  0  0  0  0  0  0  0  0
   -3.9230    3.9111    3.3164 C   0  0  0  0  0  0  0  0  0  0  0  0
   -3.8621    5.2901    3.2491 C   0  0  0  0  0  0  0  0  0  0  0  0
   -4.3566    6.0587    4.2873 C   0  0  0  0  0  0  0  0  0  0  0  0
   -4.9168    5.4461    5.3963 C   0  0  0  0  0  0  0  0  0  0  0  0
   -5.4057    6.2006    6.4177 O   0  0  0  0  0  0  0  0  0  0  0  0
   -4.9829    4.0570    5.4617 C   0  0  0  0  0  0  0  0  0  0  0  0
   -5.5317    3.4519    6.5489 O   0  0  0  0  0  0  0  0  0  0  0  0
   -5.3607    7.1354    6.3727 H   0  0  0  0  0  0  0  0  0  0  0  0
   -5.5758    2.5169    6.5923 H   0  0  0  0  0  0  0  0  0  0  0  0
 12 13  1  0  0  0
 13 11  1  0  0  0
 11  9  1  0  0  0
  9 10  2  0  0  0
 10  8  1  0  0  0
  8  6  1  0  0  0
  6  7  2  0  0  0
  7  5  1  0  0  0
  5  4  1  0  0  0
  4  3  1  0  0  0
  3  2  1  0  0  0
  2  1  1  0  0  0
  1 14  1  0  0  0
 14 15  1  0  0  0
 15 16  1  0  0  0
 16 17  2  0  0  0
 16 22  1  0  0  0
 17 18  1  0  0  0
 18 19  2  0  0  0
 19 20  1  0  0  0
 20 22  2  0  0  0
 20 21  1  0  0  0
 22 23  1  0  0  0
 21 24  1  0  0  0
 23 25  1  0  0  0
M  END
> <minimizedAffinity>
0.00000

> <CNNscore>
0.7402714491

> <CNNaffinity>
4.4792885780

> <CNN_VS>
3.3158893585

> <CNNaffinity_variance>
1.0503993034

$$$$



 25 25  0  0  0  0  0  0  0  0999 V2000
   -2.5854    0.8583    0.4423 C   0  0  0  0  0  0  0  0  0  0  0  0
   -1.9829    1.2516   -0.9083 C   0  0  0  0  0  0  0  0  0  0  0  0
   -0.9224    0.2256   -1.3109 C   0  0  0  0  0  0  0  0  0  0  0  0
   -1.0491   -0.0784   -2.8053 C   0  0  0  0  0  0  0  0  0  0  0  0
   -2.3617    0.5040   -3.3350 C   0  0  0  0  0  0  0  0  0  0  0  0
   -4.0695   -0.2044   -4.9298 C   0  0  0  0  0  0  0  0  0  0  0  0
   -2.8310   -0.3080   -4.5152 C   0  0  0  0  0  0  0  0  0  0  0  0
   -4.9763    0.8438   -4.3407 C   0  0  0  0  0  0  0  0  0  0  0  0
   -6.4462    0.3268   -2.4605 C   0  0  0  0  0  0  0  0  0  0  0  0
   -6.1860    0.1790   -3.7364 C   0  0  0  0  0  0  0  0  0  0  0  0
   -5.6394    1.2955   -1.6348 C   0  0  0  0  0  0  0  0  0  0  0  0
   -7.6579    0.8373   -0.2353 C   0  0  0  0  0  0  0  0  0  0  0  0
   -6.2256    1.3755   -0.2237 C   0  0  0  0  0  0  0  0  0  0  0  0
   -2.5251   -0.6618    0.6050 C   0  0  0  0  0  0  0  0  0  0  0  0
   -3.8943   -1.1827    1.0470 C   0  0  0  0  0  0  0  0  0  0  0  0
   -4.5361   -1.9361   -0.0891 C   0  0  0  0  0  0  0  0  0  0  0  0
   -3.8357   -2.1471   -1.2626 C   0  0  0  0  0  0  0  0  0  0  0  0
   -4.4215   -2.8386   -2.3060 C   0  0  0  0  0  0  0  0  0  0  0  0
   -5.7117   -3.3215   -2.1817 C   0  0  0  0  0  0  0  0  0  0  0  0
   -6.4182   -3.1145   -1.0082 C   0  0  0  0  0  0  0  0  0  0  0  0
   -7.6868   -3.5906   -0.8834 O   0  0  0  0  0  0  0  0  0  0  0  0
   -5.8262   -2.4226    0.0448 C   0  0  0  0  0  0  0  0  0  0  0  0
   -6.5168   -2.2169    1.1981 O   0  0  0  0  0  0  0  0  0  0  0  0
   -8.0843   -4.0562   -1.5927 H   0  0  0  0  0  0  0  0  0  0  0  0
   -6.1177   -1.7511    1.9064 H   0  0  0  0  0  0  0  0  0  0  0  0
 12 13  1  0  0  0
 13 11  1  0  0  0
 11  9  1  0  0  0
  9 10  2  0  0  0
 10  8  1  0  0  0
  8  6  1  0  0  0
  6  7  2  0  0  0
  7  5  1  0  0  0
  5  4  1  0  0  0
  4  3  1  0  0  0
  3  2  1  0  0  0
  2  1  1  0  0  0
  1 14  1  0  0  0
 14 15  1  0  0  0
 15 16  1  0  0  0
 16 17  2  0  0  0
 16 22  1  0  0  0
 17 18  1  0  0  0
 18 19  2  0  0  0
 19 20  1  0  0  0
 20 22  2  0  0  0
 20 21  1  0  0  0
 22 23  1  0  0  0
 21 24  1  0  0  0
 23 25  1  0  0  0
M  END
> <minimizedAffinity>
0.00000

> <CNNscore>
0.7395539284

> <CNNaffinity>
4.3917632103

> <CNN_VS>
3.2479457855

> <CNNaffinity_variance>
0.6942936182

$$$$
