


 21 20  0  0  0  0  0  0  0  0999 V2000
  -50.0873   57.3878   59.8281 C   0  0  0  0  0  0  0  0  0  0  0  0
  -49.0704   56.4355   60.4004 C   0  0  0  0  0  0  0  0  0  0  0  0
  -48.4216   55.6176   59.6100 C   0  0  0  0  0  0  0  0  0  0  0  0
  -48.5747   55.7342   58.1154 C   0  0  0  0  0  0  0  0  0  0  0  0
  -47.2206   55.5017   57.4440 C   0  0  0  0  0  0  0  0  0  0  0  0
  -46.8911   56.6868   56.5352 C   0  0  0  0  0  0  0  0  0  0  0  0
  -46.0635   57.7123   57.3128 C   0  0  0  0  0  0  0  0  0  0  0  0
  -46.9200   58.9449   57.6044 C   0  0  0  0  0  0  0  0  0  0  0  0
  -46.8824   59.2501   59.1030 C   0  0  0  0  0  0  0  0  0  0  0  0
  -45.9121   58.2907   59.7949 C   0  0  0  0  0  0  0  0  0  0  0  0
  -46.0578   58.4236   61.3120 C   0  0  0  0  0  0  0  0  0  0  0  0
  -51.1007   57.7645   60.9110 C   0  0  0  0  0  0  0  0  0  0  0  0
  -50.3627   58.0850   62.2117 C   0  0  0  0  0  0  0  0  0  0  0  0
  -50.2887   59.6013   62.3962 C   0  0  0  0  0  0  0  0  0  0  0  0
  -51.5573   60.0936   63.0922 C   0  0  0  0  0  0  0  0  0  0  0  0
  -51.2715   60.3178   64.5783 C   0  0  0  0  0  0  0  0  0  0  0  0
  -49.7667   60.2073   64.8318 C   0  0  0  0  0  0  0  0  0  0  0  0
  -49.5268   59.4320   66.1014 C   0  0  0  0  0  0  0  0  0  0  0  0
  -49.9635   58.3119   66.2172 O   0  0  0  0  0  0  0  0  0  0  0  0
  -48.8296   59.9871   67.1056 O   0  0  0  0  0  0  0  0  0  0  0  0
  -48.4905   60.8561   67.0163 H   0  0  0  0  0  0  0  0  0  0  0  0
 18 19  2  0  0  0
 18 20  1  0  0  0
 18 17  1  0  0  0
 17 16  1  0  0  0
 16 15  1  0  0  0
 15 14  1  0  0  0
 14 13  1  0  0  0
 13 12  1  0  0  0
 12  1  1  0  0  0
  1  2  1  0  0  0
  2  3  2  0  0  0
  3  4  1  0  0  0
  4  5  1  0  0  0
  5  6  1  0  0  0
  6  7  1  0  0  0
  7  8  1  0  0  0
  8  9  1  0  0  0
  9 10  1  0  0  0
 10 11  1  0  0  0
 20 21  1  0  0  0
M  END
> <minimizedAffinity>
-7.64884

$$$$



 21 20  0  0  0  0  0  0  0  0999 V2000
  -49.7130   57.0196   59.9772 C   0  0  0  0  0  0  0  0  0  0  0  0
  -49.8387   57.8859   58.7515 C   0  0  0  0  0  0  0  0  0  0  0  0
  -48.9947   57.7447   57.7603 C   0  0  0  0  0  0  0  0  0  0  0  0
  -47.9973   56.6151   57.7751 C   0  0  0  0  0  0  0  0  0  0  0  0
  -46.6401   57.1261   57.2900 C   0  0  0  0  0  0  0  0  0  0  0  0
  -46.1086   58.1727   58.2702 C   0  0  0  0  0  0  0  0  0  0  0  0
  -45.7426   57.4951   59.5924 C   0  0  0  0  0  0  0  0  0  0  0  0
  -46.3540   58.2786   60.7545 C   0  0  0  0  0  0  0  0  0  0  0  0
  -46.2109   59.7786   60.4904 C   0  0  0  0  0  0  0  0  0  0  0  0
  -47.4733   60.5027   60.9625 C   0  0  0  0  0  0  0  0  0  0  0  0
  -48.2517   61.0149   59.7492 C   0  0  0  0  0  0  0  0  0  0  0  0
  -50.8516   57.3396   60.9480 C   0  0  0  0  0  0  0  0  0  0  0  0
  -50.3017   58.1274   62.1380 C   0  0  0  0  0  0  0  0  0  0  0  0
  -50.8597   59.5509   62.1094 C   0  0  0  0  0  0  0  0  0  0  0  0
  -51.3181   59.9482   63.5122 C   0  0  0  0  0  0  0  0  0  0  0  0
  -50.1015   60.0781   64.4306 C   0  0  0  0  0  0  0  0  0  0  0  0
  -50.4113   59.4343   65.7836 C   0  0  0  0  0  0  0  0  0  0  0  0
  -49.1222   59.1298   66.5019 C   0  0  0  0  0  0  0  0  0  0  0  0
  -48.6309   58.0294   66.4214 O   0  0  0  0  0  0  0  0  0  0  0  0
  -48.5205   60.0810   67.2339 O   0  0  0  0  0  0  0  0  0  0  0  0
  -48.9013   60.9349   67.2967 H   0  0  0  0  0  0  0  0  0  0  0  0
 18 19  2  0  0  0
 18 20  1  0  0  0
 18 17  1  0  0  0
 17 16  1  0  0  0
 16 15  1  0  0  0
 15 14  1  0  0  0
 14 13  1  0  0  0
 13 12  1  0  0  0
 12  1  1  0  0  0
  1  2  1  0  0  0
  2  3  2  0  0  0
  3  4  1  0  0  0
  4  5  1  0  0  0
  5  6  1  0  0  0
  6  7  1  0  0  0
  7  8  1  0  0  0
  8  9  1  0  0  0
  9 10  1  0  0  0
 10 11  1  0  0  0
 20 21  1  0  0  0
M  END
> <minimizedAffinity>
-7.57487

$$$$



 21 20  0  0  0  0  0  0  0  0999 V2000
  -50.4549   57.5165   61.2997 C   0  0  0  0  0  0  0  0  0  0  0  0
  -50.4024   57.8126   59.8238 C   0  0  0  0  0  0  0  0  0  0  0  0
  -49.5967   57.1322   59.0476 C   0  0  0  0  0  0  0  0  0  0  0  0
  -48.8390   55.9515   59.5980 C   0  0  0  0  0  0  0  0  0  0  0  0
  -47.4692   55.8649   58.9238 C   0  0  0  0  0  0  0  0  0  0  0  0
  -47.6526   55.6435   57.4217 C   0  0  0  0  0  0  0  0  0  0  0  0
  -46.9508   56.7636   56.6508 C   0  0  0  0  0  0  0  0  0  0  0  0
  -46.1548   57.6332   57.6247 C   0  0  0  0  0  0  0  0  0  0  0  0
  -46.8169   59.0074   57.7405 C   0  0  0  0  0  0  0  0  0  0  0  0
  -46.7571   59.4819   59.1938 C   0  0  0  0  0  0  0  0  0  0  0  0
  -47.7166   60.6577   59.3867 C   0  0  0  0  0  0  0  0  0  0  0  0
  -49.6686   58.5843   62.0633 C   0  0  0  0  0  0  0  0  0  0  0  0
  -50.4847   59.8766   62.1197 C   0  0  0  0  0  0  0  0  0  0  0  0
  -51.3656   59.8697   63.3697 C   0  0  0  0  0  0  0  0  0  0  0  0
  -50.5959   60.4804   64.5404 C   0  0  0  0  0  0  0  0  0  0  0  0
  -50.8092   59.6287   65.7932 C   0  0  0  0  0  0  0  0  0  0  0  0
  -49.7912   58.4867   65.8144 C   0  0  0  0  0  0  0  0  0  0  0  0
  -48.5282   58.9521   66.4916 C   0  0  0  0  0  0  0  0  0  0  0  0
  -47.4967   58.3451   66.3296 O   0  0  0  0  0  0  0  0  0  0  0  0
  -48.5496   60.0406   67.2774 O   0  0  0  0  0  0  0  0  0  0  0  0
  -49.3496   60.5119   67.4034 H   0  0  0  0  0  0  0  0  0  0  0  0
 18 19  2  0  0  0
 18 20  1  0  0  0
 18 17  1  0  0  0
 17 16  1  0  0  0
 16 15  1  0  0  0
 15 14  1  0  0  0
 14 13  1  0  0  0
 13 12  1  0  0  0
 12  1  1  0  0  0
  1  2  1  0  0  0
  2  3  2  0  0  0
  3  4  1  0  0  0
  4  5  1  0  0  0
  5  6  1  0  0  0
  6  7  1  0  0  0
  7  8  1  0  0  0
  8  9  1  0  0  0
  9 10  1  0  0  0
 10 11  1  0  0  0
 20 21  1  0  0  0
M  END
> <minimizedAffinity>
-7.52290

$$$$



 21 20  0  0  0  0  0  0  0  0999 V2000
  -49.6388   57.6058   61.0873 C   0  0  0  0  0  0  0  0  0  0  0  0
  -50.0410   57.6023   59.6358 C   0  0  0  0  0  0  0  0  0  0  0  0
  -49.6999   58.6000   58.8593 C   0  0  0  0  0  0  0  0  0  0  0  0
  -48.7751   59.6729   59.3735 C   0  0  0  0  0  0  0  0  0  0  0  0
  -47.4025   59.5215   58.7165 C   0  0  0  0  0  0  0  0  0  0  0  0
  -46.3575   59.1991   59.7855 C   0  0  0  0  0  0  0  0  0  0  0  0
  -46.1120   57.6892   59.8210 C   0  0  0  0  0  0  0  0  0  0  0  0
  -46.2063   57.1228   58.4038 C   0  0  0  0  0  0  0  0  0  0  0  0
  -47.0058   55.8187   58.4274 C   0  0  0  0  0  0  0  0  0  0  0  0
  -47.5535   55.5306   57.0281 C   0  0  0  0  0  0  0  0  0  0  0  0
  -47.8429   56.8508   56.3115 C   0  0  0  0  0  0  0  0  0  0  0  0
  -50.8017   58.1203   61.9384 C   0  0  0  0  0  0  0  0  0  0  0  0
  -50.4676   59.5150   62.4698 C   0  0  0  0  0  0  0  0  0  0  0  0
  -51.7227   60.1445   63.0757 C   0  0  0  0  0  0  0  0  0  0  0  0
  -51.4745   60.4611   64.5501 C   0  0  0  0  0  0  0  0  0  0  0  0
  -50.0343   60.0976   64.9163 C   0  0  0  0  0  0  0  0  0  0  0  0
  -50.0394   59.0034   65.9857 C   0  0  0  0  0  0  0  0  0  0  0  0
  -48.6820   58.3520   66.0444 C   0  0  0  0  0  0  0  0  0  0  0  0
  -47.6836   59.0294   65.9884 O   0  0  0  0  0  0  0  0  0  0  0  0
  -48.5817   57.0178   66.1565 O   0  0  0  0  0  0  0  0  0  0  0  0
  -49.3559   56.4917   66.2001 H   0  0  0  0  0  0  0  0  0  0  0  0
 18 19  2  0  0  0
 18 20  1  0  0  0
 18 17  1  0  0  0
 17 16  1  0  0  0
 16 15  1  0  0  0
 15 14  1  0  0  0
 14 13  1  0  0  0
 13 12  1  0  0  0
 12  1  1  0  0  0
  1  2  1  0  0  0
  2  3  2  0  0  0
  3  4  1  0  0  0
  4  5  1  0  0  0
  5  6  1  0  0  0
  6  7  1  0  0  0
  7  8  1  0  0  0
  8  9  1  0  0  0
  9 10  1  0  0  0
 10 11  1  0  0  0
 20 21  1  0  0  0
M  END
> <minimizedAffinity>
-7.39761

$$$$



 21 20  0  0  0  0  0  0  0  0999 V2000
  -50.3029   58.4956   62.4510 C   0  0  0  0  0  0  0  0  0  0  0  0
  -50.8311   57.7950   61.2267 C   0  0  0  0  0  0  0  0  0  0  0  0
  -50.1129   57.7578   60.1324 C   0  0  0  0  0  0  0  0  0  0  0  0
  -48.6979   58.2760   60.1419 C   0  0  0  0  0  0  0  0  0  0  0  0
  -48.6223   59.5684   59.3278 C   0  0  0  0  0  0  0  0  0  0  0  0
  -47.2693   59.6470   58.6192 C   0  0  0  0  0  0  0  0  0  0  0  0
  -46.5056   58.3378   58.8294 C   0  0  0  0  0  0  0  0  0  0  0  0
  -46.2043   57.6987   57.4733 C   0  0  0  0  0  0  0  0  0  0  0  0
  -47.4419   57.7914   56.5789 C   0  0  0  0  0  0  0  0  0  0  0  0
  -48.2480   56.4955   56.6871 C   0  0  0  0  0  0  0  0  0  0  0  0
  -47.3001   55.3261   56.9601 C   0  0  0  0  0  0  0  0  0  0  0  0
  -51.1256   59.7592   62.7114 C   0  0  0  0  0  0  0  0  0  0  0  0
  -51.1309   60.0652   64.2099 C   0  0  0  0  0  0  0  0  0  0  0  0
  -50.3281   58.9958   64.9520 C   0  0  0  0  0  0  0  0  0  0  0  0
  -49.5617   59.6415   66.1060 C   0  0  0  0  0  0  0  0  0  0  0  0
  -48.3484   58.7796   66.4603 C   0  0  0  0  0  0  0  0  0  0  0  0
  -48.5065   57.3924   65.8343 C   0  0  0  0  0  0  0  0  0  0  0  0
  -47.4226   56.4819   66.3506 C   0  0  0  0  0  0  0  0  0  0  0  0
  -46.6406   56.8825   67.1793 O   0  0  0  0  0  0  0  0  0  0  0  0
  -47.3242   55.2254   65.8877 O   0  0  0  0  0  0  0  0  0  0  0  0
  -47.9306   54.9141   65.2448 H   0  0  0  0  0  0  0  0  0  0  0  0
 18 19  2  0  0  0
 18 20  1  0  0  0
 18 17  1  0  0  0
 17 16  1  0  0  0
 16 15  1  0  0  0
 15 14  1  0  0  0
 14 13  1  0  0  0
 13 12  1  0  0  0
 12  1  1  0  0  0
  1  2  1  0  0  0
  2  3  2  0  0  0
  3  4  1  0  0  0
  4  5  1  0  0  0
  5  6  1  0  0  0
  6  7  1  0  0  0
  7  8  1  0  0  0
  8  9  1  0  0  0
  9 10  1  0  0  0
 10 11  1  0  0  0
 20 21  1  0  0  0
M  END
> <minimizedAffinity>
-7.18902

$$$$



 21 20  0  0  0  0  0  0  0  0999 V2000
  -48.9553   57.4076   57.9700 C   0  0  0  0  0  0  0  0  0  0  0  0
  -48.7925   56.4610   59.1302 C   0  0  0  0  0  0  0  0  0  0  0  0
  -49.4858   56.6430   60.2261 C   0  0  0  0  0  0  0  0  0  0  0  0
  -50.5580   57.7009   60.2725 C   0  0  0  0  0  0  0  0  0  0  0  0
  -50.0760   58.8793   61.1195 C   0  0  0  0  0  0  0  0  0  0  0  0
  -50.6824   58.7832   62.5201 C   0  0  0  0  0  0  0  0  0  0  0  0
  -51.5662   60.0051   62.7792 C   0  0  0  0  0  0  0  0  0  0  0  0
  -51.4223   60.4397   64.2382 C   0  0  0  0  0  0  0  0  0  0  0  0
  -50.0925   59.9275   64.7947 C   0  0  0  0  0  0  0  0  0  0  0  0
  -50.3390   59.2024   66.1193 C   0  0  0  0  0  0  0  0  0  0  0  0
  -49.6802   57.8224   66.0759 C   0  0  0  0  0  0  0  0  0  0  0  0
  -47.7350   57.3057   57.0525 C   0  0  0  0  0  0  0  0  0  0  0  0
  -46.6260   58.2207   57.5743 C   0  0  0  0  0  0  0  0  0  0  0  0
  -47.2384   59.5274   58.0804 C   0  0  0  0  0  0  0  0  0  0  0  0
  -46.7202   59.8231   59.4875 C   0  0  0  0  0  0  0  0  0  0  0  0
  -47.3378   61.1267   59.9969 C   0  0  0  0  0  0  0  0  0  0  0  0
  -47.0254   61.2929   61.4854 C   0  0  0  0  0  0  0  0  0  0  0  0
  -45.6098   61.7822   61.6500 C   0  0  0  0  0  0  0  0  0  0  0  0
  -44.7673   61.0506   62.1124 O   0  0  0  0  0  0  0  0  0  0  0  0
  -45.2848   63.0328   61.2849 O   0  0  0  0  0  0  0  0  0  0  0  0
  -45.9380   63.6008   60.9262 H   0  0  0  0  0  0  0  0  0  0  0  0
 18 19  2  0  0  0
 18 20  1  0  0  0
 18 17  1  0  0  0
 17 16  1  0  0  0
 16 15  1  0  0  0
 15 14  1  0  0  0
 14 13  1  0  0  0
 13 12  1  0  0  0
 12  1  1  0  0  0
  1  2  1  0  0  0
  2  3  2  0  0  0
  3  4  1  0  0  0
  4  5  1  0  0  0
  5  6  1  0  0  0
  6  7  1  0  0  0
  7  8  1  0  0  0
  8  9  1  0  0  0
  9 10  1  0  0  0
 10 11  1  0  0  0
 20 21  1  0  0  0
M  END
> <minimizedAffinity>
-7.14643

$$$$



 21 20  0  0  0  0  0  0  0  0999 V2000
  -48.7541   56.0993   59.6851 C   0  0  0  0  0  0  0  0  0  0  0  0
  -49.6879   57.2107   59.2834 C   0  0  0  0  0  0  0  0  0  0  0  0
  -50.0600   58.1044   60.1653 C   0  0  0  0  0  0  0  0  0  0  0  0
  -49.4352   58.1153   61.5366 C   0  0  0  0  0  0  0  0  0  0  0  0
  -50.5194   58.3476   62.5896 C   0  0  0  0  0  0  0  0  0  0  0  0
  -51.0268   59.7869   62.4911 C   0  0  0  0  0  0  0  0  0  0  0  0
  -51.5212   60.2495   63.8633 C   0  0  0  0  0  0  0  0  0  0  0  0
  -50.3339   60.3738   64.8189 C   0  0  0  0  0  0  0  0  0  0  0  0
  -50.4406   59.3045   65.9077 C   0  0  0  0  0  0  0  0  0  0  0  0
  -49.0380   58.9077   66.3726 C   0  0  0  0  0  0  0  0  0  0  0  0
  -48.7268   57.4864   65.9000 C   0  0  0  0  0  0  0  0  0  0  0  0
  -47.8347   55.7551   58.5113 C   0  0  0  0  0  0  0  0  0  0  0  0
  -48.3164   56.4825   57.2552 C   0  0  0  0  0  0  0  0  0  0  0  0
  -47.1199   57.1082   56.5373 C   0  0  0  0  0  0  0  0  0  0  0  0
  -46.2191   57.8043   57.5572 C   0  0  0  0  0  0  0  0  0  0  0  0
  -46.8238   59.1580   57.9343 C   0  0  0  0  0  0  0  0  0  0  0  0
  -46.6558   59.3920   59.4370 C   0  0  0  0  0  0  0  0  0  0  0  0
  -47.2590   60.7218   59.8088 C   0  0  0  0  0  0  0  0  0  0  0  0
  -47.4329   61.0030   60.9704 O   0  0  0  0  0  0  0  0  0  0  0  0
  -47.6059   61.5938   58.8485 O   0  0  0  0  0  0  0  0  0  0  0  0
  -47.4713   61.3762   57.9471 H   0  0  0  0  0  0  0  0  0  0  0  0
 18 19  2  0  0  0
 18 20  1  0  0  0
 18 17  1  0  0  0
 17 16  1  0  0  0
 16 15  1  0  0  0
 15 14  1  0  0  0
 14 13  1  0  0  0
 13 12  1  0  0  0
 12  1  1  0  0  0
  1  2  1  0  0  0
  2  3  2  0  0  0
  3  4  1  0  0  0
  4  5  1  0  0  0
  5  6  1  0  0  0
  6  7  1  0  0  0
  7  8  1  0  0  0
  8  9  1  0  0  0
  9 10  1  0  0  0
 10 11  1  0  0  0
 20 21  1  0  0  0
M  END
> <minimizedAffinity>
-7.12226

$$$$



 21 20  0  0  0  0  0  0  0  0999 V2000
  -49.3870   59.8690   60.6819 C   0  0  0  0  0  0  0  0  0  0  0  0
  -49.8854   58.6593   61.4281 C   0  0  0  0  0  0  0  0  0  0  0  0
  -50.7336   58.8024   62.4153 C   0  0  0  0  0  0  0  0  0  0  0  0
  -51.3318   60.1550   62.7048 C   0  0  0  0  0  0  0  0  0  0  0  0
  -51.6317   60.2710   64.1998 C   0  0  0  0  0  0  0  0  0  0  0  0
  -50.3183   60.3181   64.9818 C   0  0  0  0  0  0  0  0  0  0  0  0
  -50.3011   59.1938   66.0197 C   0  0  0  0  0  0  0  0  0  0  0  0
  -48.8665   58.7030   66.2175 C   0  0  0  0  0  0  0  0  0  0  0  0
  -48.5096   57.7094   65.1104 C   0  0  0  0  0  0  0  0  0  0  0  0
  -47.3916   58.2915   64.2431 C   0  0  0  0  0  0  0  0  0  0  0  0
  -46.7731   59.4988   64.9504 C   0  0  0  0  0  0  0  0  0  0  0  0
  -47.8855   60.0365   60.9250 C   0  0  0  0  0  0  0  0  0  0  0  0
  -47.2450   60.7169   59.7142 C   0  0  0  0  0  0  0  0  0  0  0  0
  -47.3159   59.7816   58.5064 C   0  0  0  0  0  0  0  0  0  0  0  0
  -46.3769   58.5953   58.7232 C   0  0  0  0  0  0  0  0  0  0  0  0
  -46.2342   57.8102   57.4179 C   0  0  0  0  0  0  0  0  0  0  0  0
  -47.5897   57.2179   57.0269 C   0  0  0  0  0  0  0  0  0  0  0  0
  -47.5746   55.7299   57.2634 C   0  0  0  0  0  0  0  0  0  0  0  0
  -48.1231   55.2667   58.2347 O   0  0  0  0  0  0  0  0  0  0  0  0
  -46.9491   54.9183   56.3956 O   0  0  0  0  0  0  0  0  0  0  0  0
  -46.5235   55.2771   55.6419 H   0  0  0  0  0  0  0  0  0  0  0  0
 18 19  2  0  0  0
 18 20  1  0  0  0
 18 17  1  0  0  0
 17 16  1  0  0  0
 16 15  1  0  0  0
 15 14  1  0  0  0
 14 13  1  0  0  0
 13 12  1  0  0  0
 12  1  1  0  0  0
  1  2  1  0  0  0
  2  3  2  0  0  0
  3  4  1  0  0  0
  4  5  1  0  0  0
  5  6  1  0  0  0
  6  7  1  0  0  0
  7  8  1  0  0  0
  8  9  1  0  0  0
  9 10  1  0  0  0
 10 11  1  0  0  0
 20 21  1  0  0  0
M  END
> <minimizedAffinity>
-7.05189

$$$$



 21 20  0  0  0  0  0  0  0  0999 V2000
  -50.5048   59.3811   62.4466 C   0  0  0  0  0  0  0  0  0  0  0  0
  -49.8924   60.2035   61.3434 C   0  0  0  0  0  0  0  0  0  0  0  0
  -48.5904   60.2629   61.2163 C   0  0  0  0  0  0  0  0  0  0  0  0
  -47.7093   59.3884   62.0707 C   0  0  0  0  0  0  0  0  0  0  0  0
  -46.8932   58.4559   61.1748 C   0  0  0  0  0  0  0  0  0  0  0  0
  -46.2908   59.2561   60.0191 C   0  0  0  0  0  0  0  0  0  0  0  0
  -46.2972   58.4029   58.7489 C   0  0  0  0  0  0  0  0  0  0  0  0
  -47.4877   58.7977   57.8742 C   0  0  0  0  0  0  0  0  0  0  0  0
  -48.4462   57.6117   57.7510 C   0  0  0  0  0  0  0  0  0  0  0  0
  -49.7098   57.8898   58.5676 C   0  0  0  0  0  0  0  0  0  0  0  0
  -49.8068   56.8838   59.7161 C   0  0  0  0  0  0  0  0  0  0  0  0
  -51.7202   60.1154   63.0168 C   0  0  0  0  0  0  0  0  0  0  0  0
  -51.4208   60.5638   64.4480 C   0  0  0  0  0  0  0  0  0  0  0  0
  -50.1016   59.9445   64.9114 C   0  0  0  0  0  0  0  0  0  0  0  0
  -50.3486   59.0829   66.1493 C   0  0  0  0  0  0  0  0  0  0  0  0
  -49.5372   57.7903   66.0435 C   0  0  0  0  0  0  0  0  0  0  0  0
  -48.1561   58.0999   65.4624 C   0  0  0  0  0  0  0  0  0  0  0  0
  -47.2299   56.9403   65.7235 C   0  0  0  0  0  0  0  0  0  0  0  0
  -46.0427   57.0615   65.5378 O   0  0  0  0  0  0  0  0  0  0  0  0
  -47.7246   55.7710   66.1602 O   0  0  0  0  0  0  0  0  0  0  0  0
  -48.6456   55.6764   66.3044 H   0  0  0  0  0  0  0  0  0  0  0  0
 18 19  2  0  0  0
 18 20  1  0  0  0
 18 17  1  0  0  0
 17 16  1  0  0  0
 16 15  1  0  0  0
 15 14  1  0  0  0
 14 13  1  0  0  0
 13 12  1  0  0  0
 12  1  1  0  0  0
  1  2  1  0  0  0
  2  3  2  0  0  0
  3  4  1  0  0  0
  4  5  1  0  0  0
  5  6  1  0  0  0
  6  7  1  0  0  0
  7  8  1  0  0  0
  8  9  1  0  0  0
  9 10  1  0  0  0
 10 11  1  0  0  0
 20 21  1  0  0  0
M  END
> <minimizedAffinity>
-7.02626

$$$$
