


 21 20  0  0  0  0  0  0  0  0999 V2000
  -50.3905   58.9534   65.6733 C   0  0  0  0  0  0  0  0  0  0  0  0
  -51.0264   60.2402   65.2169 C   0  0  0  0  0  0  0  0  0  0  0  0
  -51.3979   60.3806   63.9691 C   0  0  0  0  0  0  0  0  0  0  0  0
  -51.3349   59.2058   63.0274 C   0  0  0  0  0  0  0  0  0  0  0  0
  -50.1575   59.3834   62.0678 C   0  0  0  0  0  0  0  0  0  0  0  0
  -49.3171   58.1059   62.0489 C   0  0  0  0  0  0  0  0  0  0  0  0
  -49.4408   57.4332   60.6801 C   0  0  0  0  0  0  0  0  0  0  0  0
  -48.7188   58.2770   59.6290 C   0  0  0  0  0  0  0  0  0  0  0  0
  -47.4285   57.5720   59.2065 C   0  0  0  0  0  0  0  0  0  0  0  0
  -46.8842   58.2235   57.9337 C   0  0  0  0  0  0  0  0  0  0  0  0
  -47.1228   57.2938   56.7424 C   0  0  0  0  0  0  0  0  0  0  0  0
  -49.0171   59.2492   66.2798 C   0  0  0  0  0  0  0  0  0  0  0  0
  -48.0572   59.6965   65.1763 C   0  0  0  0  0  0  0  0  0  0  0  0
  -46.8948   58.7076   65.0793 C   0  0  0  0  0  0  0  0  0  0  0  0
  -46.4044   58.3564   66.4836 C   0  0  0  0  0  0  0  0  0  0  0  0
  -44.9866   57.7873   66.4032 C   0  0  0  0  0  0  0  0  0  0  0  0
  -44.5976   57.5894   64.9367 C   0  0  0  0  0  0  0  0  0  0  0  0
  -43.2591   56.9018   64.8605 C   0  0  0  0  0  0  0  0  0  0  0  0
  -42.2435   57.5553   64.8516 O   0  0  0  0  0  0  0  0  0  0  0  0
  -43.1949   55.5620   64.7998 O   0  0  0  0  0  0  0  0  0  0  0  0
  -43.9825   55.0544   64.8067 H   0  0  0  0  0  0  0  0  0  0  0  0
 18 19  2  0  0  0
 18 20  1  0  0  0
 18 17  1  0  0  0
 17 16  1  0  0  0
 16 15  1  0  0  0
 15 14  1  0  0  0
 14 13  1  0  0  0
 13 12  1  0  0  0
 12  1  1  0  0  0
  1  2  1  0  0  0
  2  3  2  0  0  0
  3  4  1  0  0  0
  4  5  1  0  0  0
  5  6  1  0  0  0
  6  7  1  0  0  0
  7  8  1  0  0  0
  8  9  1  0  0  0
  9 10  1  0  0  0
 10 11  1  0  0  0
 20 21  1  0  0  0
M  END
> <minimizedAffinity>
-8.01359

$$$$



 21 20  0  0  0  0  0  0  0  0999 V2000
  -50.2148   59.7002   62.1687 C   0  0  0  0  0  0  0  0  0  0  0  0
  -51.4432   59.7242   63.0399 C   0  0  0  0  0  0  0  0  0  0  0  0
  -51.3384   60.0177   64.3118 C   0  0  0  0  0  0  0  0  0  0  0  0
  -50.0189   60.4835   64.8713 C   0  0  0  0  0  0  0  0  0  0  0  0
  -49.6903   59.6865   66.1344 C   0  0  0  0  0  0  0  0  0  0  0  0
  -49.7592   58.1902   65.8262 C   0  0  0  0  0  0  0  0  0  0  0  0
  -48.3448   57.6471   65.6119 C   0  0  0  0  0  0  0  0  0  0  0  0
  -47.4857   57.9612   66.8371 C   0  0  0  0  0  0  0  0  0  0  0  0
  -46.0058   57.8587   66.4630 C   0  0  0  0  0  0  0  0  0  0  0  0
  -45.8272   58.2134   64.9854 C   0  0  0  0  0  0  0  0  0  0  0  0
  -44.4486   57.7489   64.5122 C   0  0  0  0  0  0  0  0  0  0  0  0
  -49.7519   58.2543   61.9778 C   0  0  0  0  0  0  0  0  0  0  0  0
  -50.5339   57.6152   60.8292 C   0  0  0  0  0  0  0  0  0  0  0  0
  -49.7298   57.7375   59.5342 C   0  0  0  0  0  0  0  0  0  0  0  0
  -48.2387   57.8037   59.8631 C   0  0  0  0  0  0  0  0  0  0  0  0
  -47.4472   58.1130   58.5910 C   0  0  0  0  0  0  0  0  0  0  0  0
  -46.7447   56.8436   58.1048 C   0  0  0  0  0  0  0  0  0  0  0  0
  -47.4578   56.3089   56.8899 C   0  0  0  0  0  0  0  0  0  0  0  0
  -47.5821   55.1172   56.7378 O   0  0  0  0  0  0  0  0  0  0  0  0
  -47.9532   57.1571   55.9745 O   0  0  0  0  0  0  0  0  0  0  0  0
  -47.8570   58.0817   56.0920 H   0  0  0  0  0  0  0  0  0  0  0  0
 18 19  2  0  0  0
 18 20  1  0  0  0
 18 17  1  0  0  0
 17 16  1  0  0  0
 16 15  1  0  0  0
 15 14  1  0  0  0
 14 13  1  0  0  0
 13 12  1  0  0  0
 12  1  1  0  0  0
  1  2  1  0  0  0
  2  3  2  0  0  0
  3  4  1  0  0  0
  4  5  1  0  0  0
  5  6  1  0  0  0
  6  7  1  0  0  0
  7  8  1  0  0  0
  8  9  1  0  0  0
  9 10  1  0  0  0
 10 11  1  0  0  0
 20 21  1  0  0  0
M  END
> <minimizedAffinity>
-8.00346

$$$$



 21 20  0  0  0  0  0  0  0  0999 V2000
  -51.3218   59.9609   63.3907 C   0  0  0  0  0  0  0  0  0  0  0  0
  -51.1360   58.4981   63.0839 C   0  0  0  0  0  0  0  0  0  0  0  0
  -50.4611   58.1320   62.0232 C   0  0  0  0  0  0  0  0  0  0  0  0
  -49.7385   59.1643   61.1966 C   0  0  0  0  0  0  0  0  0  0  0  0
  -49.4746   58.6048   59.7981 C   0  0  0  0  0  0  0  0  0  0  0  0
  -48.8572   57.2105   59.9141 C   0  0  0  0  0  0  0  0  0  0  0  0
  -47.3802   57.2713   59.5189 C   0  0  0  0  0  0  0  0  0  0  0  0
  -47.1750   58.3711   58.4765 C   0  0  0  0  0  0  0  0  0  0  0  0
  -46.1027   57.9336   57.4769 C   0  0  0  0  0  0  0  0  0  0  0  0
  -46.5827   56.6905   56.7251 C   0  0  0  0  0  0  0  0  0  0  0  0
  -48.0066   56.9204   56.2153 C   0  0  0  0  0  0  0  0  0  0  0  0
  -51.0886   60.2034   64.8835 C   0  0  0  0  0  0  0  0  0  0  0  0
  -50.0086   61.2711   65.0647 C   0  0  0  0  0  0  0  0  0  0  0  0
  -48.6861   60.7619   64.4898 C   0  0  0  0  0  0  0  0  0  0  0  0
  -48.1309   59.6565   65.3874 C   0  0  0  0  0  0  0  0  0  0  0  0
  -47.5255   58.5499   64.5216 C   0  0  0  0  0  0  0  0  0  0  0  0
  -46.4141   57.8425   65.2997 C   0  0  0  0  0  0  0  0  0  0  0  0
  -47.0184   57.0478   66.4282 C   0  0  0  0  0  0  0  0  0  0  0  0
  -47.9328   56.2891   66.2112 O   0  0  0  0  0  0  0  0  0  0  0  0
  -46.5423   57.1847   67.6762 O   0  0  0  0  0  0  0  0  0  0  0  0
  -45.8330   57.7732   67.8451 H   0  0  0  0  0  0  0  0  0  0  0  0
 18 19  2  0  0  0
 18 20  1  0  0  0
 18 17  1  0  0  0
 17 16  1  0  0  0
 16 15  1  0  0  0
 15 14  1  0  0  0
 14 13  1  0  0  0
 13 12  1  0  0  0
 12  1  1  0  0  0
  1  2  1  0  0  0
  2  3  2  0  0  0
  3  4  1  0  0  0
  4  5  1  0  0  0
  5  6  1  0  0  0
  6  7  1  0  0  0
  7  8  1  0  0  0
  8  9  1  0  0  0
  9 10  1  0  0  0
 10 11  1  0  0  0
 20 21  1  0  0  0
M  END
> <minimizedAffinity>
-7.90886

$$$$



 21 20  0  0  0  0  0  0  0  0999 V2000
  -32.5855   57.4353   60.9911 C   0  0  0  0  0  0  0  0  0  0  0  0
  -31.3705   56.5459   61.0286 C   0  0  0  0  0  0  0  0  0  0  0  0
  -30.2983   56.9289   61.6753 C   0  0  0  0  0  0  0  0  0  0  0  0
  -30.3299   58.1825   62.5110 C   0  0  0  0  0  0  0  0  0  0  0  0
  -30.7180   57.8288   63.9472 C   0  0  0  0  0  0  0  0  0  0  0  0
  -29.4622   57.4648   64.7405 C   0  0  0  0  0  0  0  0  0  0  0  0
  -29.6967   56.1546   65.4954 C   0  0  0  0  0  0  0  0  0  0  0  0
  -28.7296   55.0880   64.9804 C   0  0  0  0  0  0  0  0  0  0  0  0
  -29.2141   54.5715   63.6243 C   0  0  0  0  0  0  0  0  0  0  0  0
  -28.0289   54.0019   62.8422 C   0  0  0  0  0  0  0  0  0  0  0  0
  -26.8823   53.6926   63.8065 C   0  0  0  0  0  0  0  0  0  0  0  0
  -33.6594   56.8728   61.9249 C   0  0  0  0  0  0  0  0  0  0  0  0
  -34.6194   57.9918   62.3316 C   0  0  0  0  0  0  0  0  0  0  0  0
  -35.8802   57.9212   61.4691 C   0  0  0  0  0  0  0  0  0  0  0  0
  -37.0331   57.3517   62.2953 C   0  0  0  0  0  0  0  0  0  0  0  0
  -38.3572   57.6138   61.5752 C   0  0  0  0  0  0  0  0  0  0  0  0
  -38.1417   58.6497   60.4700 C   0  0  0  0  0  0  0  0  0  0  0  0
  -39.4767   59.1586   59.9913 C   0  0  0  0  0  0  0  0  0  0  0  0
  -39.5407   60.1861   59.3599 O   0  0  0  0  0  0  0  0  0  0  0  0
  -40.5962   58.4711   60.2688 O   0  0  0  0  0  0  0  0  0  0  0  0
  -40.5471   57.6738   60.7587 H   0  0  0  0  0  0  0  0  0  0  0  0
 18 19  2  0  0  0
 18 20  1  0  0  0
 18 17  1  0  0  0
 17 16  1  0  0  0
 16 15  1  0  0  0
 15 14  1  0  0  0
 14 13  1  0  0  0
 13 12  1  0  0  0
 12  1  1  0  0  0
  1  2  1  0  0  0
  2  3  2  0  0  0
  3  4  1  0  0  0
  4  5  1  0  0  0
  5  6  1  0  0  0
  6  7  1  0  0  0
  7  8  1  0  0  0
  8  9  1  0  0  0
  9 10  1  0  0  0
 10 11  1  0  0  0
 20 21  1  0  0  0
M  END
> <minimizedAffinity>
-7.19307

$$$$



 21 20  0  0  0  0  0  0  0  0999 V2000
  -47.0885   57.9837   65.3027 C   0  0  0  0  0  0  0  0  0  0  0  0
  -47.4146   59.2964   64.6401 C   0  0  0  0  0  0  0  0  0  0  0  0
  -48.4419   59.3852   63.8330 C   0  0  0  0  0  0  0  0  0  0  0  0
  -49.3888   58.2218   63.6877 C   0  0  0  0  0  0  0  0  0  0  0  0
  -50.2633   58.4270   62.4502 C   0  0  0  0  0  0  0  0  0  0  0  0
  -49.4611   59.1597   61.3739 C   0  0  0  0  0  0  0  0  0  0  0  0
  -49.4869   58.3487   60.0766 C   0  0  0  0  0  0  0  0  0  0  0  0
  -48.1248   57.6886   59.8594 C   0  0  0  0  0  0  0  0  0  0  0  0
  -47.4536   58.2967   58.6265 C   0  0  0  0  0  0  0  0  0  0  0  0
  -46.9043   57.1771   57.7401 C   0  0  0  0  0  0  0  0  0  0  0  0
  -47.7833   57.0330   56.4964 C   0  0  0  0  0  0  0  0  0  0  0  0
  -45.6768   58.0447   65.8900 C   0  0  0  0  0  0  0  0  0  0  0  0
  -44.6609   58.2190   64.7601 C   0  0  0  0  0  0  0  0  0  0  0  0
  -43.3604   57.5035   65.1283 C   0  0  0  0  0  0  0  0  0  0  0  0
  -43.1134   57.6338   66.6309 C   0  0  0  0  0  0  0  0  0  0  0  0
  -42.3912   58.9515   66.9185 C   0  0  0  0  0  0  0  0  0  0  0  0
  -41.3106   59.1836   65.8606 C   0  0  0  0  0  0  0  0  0  0  0  0
  -40.5170   60.4146   66.2147 C   0  0  0  0  0  0  0  0  0  0  0  0
  -39.3426   60.3209   66.4803 O   0  0  0  0  0  0  0  0  0  0  0  0
  -41.1160   61.6160   66.2376 O   0  0  0  0  0  0  0  0  0  0  0  0
  -42.0272   61.6893   66.0317 H   0  0  0  0  0  0  0  0  0  0  0  0
 18 19  2  0  0  0
 18 20  1  0  0  0
 18 17  1  0  0  0
 17 16  1  0  0  0
 16 15  1  0  0  0
 15 14  1  0  0  0
 14 13  1  0  0  0
 13 12  1  0  0  0
 12  1  1  0  0  0
  1  2  1  0  0  0
  2  3  2  0  0  0
  3  4  1  0  0  0
  4  5  1  0  0  0
  5  6  1  0  0  0
  6  7  1  0  0  0
  7  8  1  0  0  0
  8  9  1  0  0  0
  9 10  1  0  0  0
 10 11  1  0  0  0
 20 21  1  0  0  0
M  END
> <minimizedAffinity>
-7.19286

$$$$



 21 20  0  0  0  0  0  0  0  0999 V2000
  -49.3431   58.2279   63.5831 C   0  0  0  0  0  0  0  0  0  0  0  0
  -50.1969   58.6471   64.7510 C   0  0  0  0  0  0  0  0  0  0  0  0
  -49.6362   59.1185   65.8364 C   0  0  0  0  0  0  0  0  0  0  0  0
  -48.1538   59.3889   65.8621 C   0  0  0  0  0  0  0  0  0  0  0  0
  -47.5224   58.6590   67.0483 C   0  0  0  0  0  0  0  0  0  0  0  0
  -46.0422   58.4034   66.7613 C   0  0  0  0  0  0  0  0  0  0  0  0
  -45.8922   57.7704   65.3763 C   0  0  0  0  0  0  0  0  0  0  0  0
  -44.5270   58.1361   64.7926 C   0  0  0  0  0  0  0  0  0  0  0  0
  -43.7097   56.8625   64.5685 C   0  0  0  0  0  0  0  0  0  0  0  0
  -42.5177   56.8456   65.5275 C   0  0  0  0  0  0  0  0  0  0  0  0
  -42.3437   58.2323   66.1497 C   0  0  0  0  0  0  0  0  0  0  0  0
  -49.8773   58.8725   62.3023 C   0  0  0  0  0  0  0  0  0  0  0  0
  -50.2330   57.7812   61.2914 C   0  0  0  0  0  0  0  0  0  0  0  0
  -49.6632   58.1497   59.9210 C   0  0  0  0  0  0  0  0  0  0  0  0
  -48.1976   57.7227   59.8456 C   0  0  0  0  0  0  0  0  0  0  0  0
  -47.6119   58.1397   58.4952 C   0  0  0  0  0  0  0  0  0  0  0  0
  -46.6682   57.0472   57.9881 C   0  0  0  0  0  0  0  0  0  0  0  0
  -47.2697   56.3877   56.7741 C   0  0  0  0  0  0  0  0  0  0  0  0
  -47.2752   55.1835   56.6810 O   0  0  0  0  0  0  0  0  0  0  0  0
  -47.7975   57.1386   55.7942 O   0  0  0  0  0  0  0  0  0  0  0  0
  -47.7935   58.0728   55.8660 H   0  0  0  0  0  0  0  0  0  0  0  0
 18 19  2  0  0  0
 18 20  1  0  0  0
 18 17  1  0  0  0
 17 16  1  0  0  0
 16 15  1  0  0  0
 15 14  1  0  0  0
 14 13  1  0  0  0
 13 12  1  0  0  0
 12  1  1  0  0  0
  1  2  1  0  0  0
  2  3  2  0  0  0
  3  4  1  0  0  0
  4  5  1  0  0  0
  5  6  1  0  0  0
  6  7  1  0  0  0
  7  8  1  0  0  0
  8  9  1  0  0  0
  9 10  1  0  0  0
 10 11  1  0  0  0
 20 21  1  0  0  0
M  END
> <minimizedAffinity>
-7.16734

$$$$



 21 20  0  0  0  0  0  0  0  0999 V2000
  -48.4492   59.5847   65.3246 C   0  0  0  0  0  0  0  0  0  0  0  0
  -49.8021   59.4991   65.9810 C   0  0  0  0  0  0  0  0  0  0  0  0
  -50.8701   59.8932   65.3339 C   0  0  0  0  0  0  0  0  0  0  0  0
  -50.7699   60.2844   63.8821 C   0  0  0  0  0  0  0  0  0  0  0  0
  -51.3122   59.1516   63.0096 C   0  0  0  0  0  0  0  0  0  0  0  0
  -50.1456   58.3846   62.3856 C   0  0  0  0  0  0  0  0  0  0  0  0
  -49.6251   59.1491   61.1667 C   0  0  0  0  0  0  0  0  0  0  0  0
  -49.7948   58.2895   59.9136 C   0  0  0  0  0  0  0  0  0  0  0  0
  -48.7350   57.1862   59.9038 C   0  0  0  0  0  0  0  0  0  0  0  0
  -48.0731   57.1266   58.5257 C   0  0  0  0  0  0  0  0  0  0  0  0
  -47.0886   58.2887   58.3818 C   0  0  0  0  0  0  0  0  0  0  0  0
  -47.7550   58.2235   65.4054 C   0  0  0  0  0  0  0  0  0  0  0  0
  -46.2581   58.3974   65.1444 C   0  0  0  0  0  0  0  0  0  0  0  0
  -45.4824   58.1526   66.4394 C   0  0  0  0  0  0  0  0  0  0  0  0
  -44.0384   57.7782   66.1068 C   0  0  0  0  0  0  0  0  0  0  0  0
  -44.0143   56.8842   64.8656 C   0  0  0  0  0  0  0  0  0  0  0  0
  -42.8296   57.2728   63.9787 C   0  0  0  0  0  0  0  0  0  0  0  0
  -41.5818   56.5940   64.4816 C   0  0  0  0  0  0  0  0  0  0  0  0
  -41.5959   55.4128   64.7331 O   0  0  0  0  0  0  0  0  0  0  0  0
  -40.4543   57.3028   64.6527 O   0  0  0  0  0  0  0  0  0  0  0  0
  -40.4429   58.2192   64.4577 H   0  0  0  0  0  0  0  0  0  0  0  0
 18 19  2  0  0  0
 18 20  1  0  0  0
 18 17  1  0  0  0
 17 16  1  0  0  0
 16 15  1  0  0  0
 15 14  1  0  0  0
 14 13  1  0  0  0
 13 12  1  0  0  0
 12  1  1  0  0  0
  1  2  1  0  0  0
  2  3  2  0  0  0
  3  4  1  0  0  0
  4  5  1  0  0  0
  5  6  1  0  0  0
  6  7  1  0  0  0
  7  8  1  0  0  0
  8  9  1  0  0  0
  9 10  1  0  0  0
 10 11  1  0  0  0
 20 21  1  0  0  0
M  END
> <minimizedAffinity>
-7.14429

$$$$



 21 20  0  0  0  0  0  0  0  0999 V2000
  -48.1537   59.2975   65.5879 C   0  0  0  0  0  0  0  0  0  0  0  0
  -49.3864   58.6075   66.1103 C   0  0  0  0  0  0  0  0  0  0  0  0
  -50.5576   59.1811   65.9925 C   0  0  0  0  0  0  0  0  0  0  0  0
  -50.6966   60.4543   65.1984 C   0  0  0  0  0  0  0  0  0  0  0  0
  -51.5481   60.1904   63.9559 C   0  0  0  0  0  0  0  0  0  0  0  0
  -50.6362   59.8705   62.7706 C   0  0  0  0  0  0  0  0  0  0  0  0
  -50.7370   58.3808   62.4360 C   0  0  0  0  0  0  0  0  0  0  0  0
  -49.5479   57.9709   61.5663 C   0  0  0  0  0  0  0  0  0  0  0  0
  -50.0396   57.1072   60.4033 C   0  0  0  0  0  0  0  0  0  0  0  0
  -49.2655   57.4708   59.1347 C   0  0  0  0  0  0  0  0  0  0  0  0
  -47.8127   57.7856   59.4960 C   0  0  0  0  0  0  0  0  0  0  0  0
  -47.5288   58.4539   64.4747 C   0  0  0  0  0  0  0  0  0  0  0  0
  -46.0169   58.3662   64.6880 C   0  0  0  0  0  0  0  0  0  0  0  0
  -45.7250   57.5325   65.9363 C   0  0  0  0  0  0  0  0  0  0  0  0
  -44.5889   58.1791   66.7282 C   0  0  0  0  0  0  0  0  0  0  0  0
  -43.2786   57.4458   66.4348 C   0  0  0  0  0  0  0  0  0  0  0  0
  -42.4814   58.2237   65.3857 C   0  0  0  0  0  0  0  0  0  0  0  0
  -41.3290   58.9295   66.0521 C   0  0  0  0  0  0  0  0  0  0  0  0
  -41.5361   59.7095   66.9507 O   0  0  0  0  0  0  0  0  0  0  0  0
  -40.0713   58.6933   65.6456 O   0  0  0  0  0  0  0  0  0  0  0  0
  -39.9100   58.0883   64.9486 H   0  0  0  0  0  0  0  0  0  0  0  0
 18 19  2  0  0  0
 18 20  1  0  0  0
 18 17  1  0  0  0
 17 16  1  0  0  0
 16 15  1  0  0  0
 15 14  1  0  0  0
 14 13  1  0  0  0
 13 12  1  0  0  0
 12  1  1  0  0  0
  1  2  1  0  0  0
  2  3  2  0  0  0
  3  4  1  0  0  0
  4  5  1  0  0  0
  5  6  1  0  0  0
  6  7  1  0  0  0
  7  8  1  0  0  0
  8  9  1  0  0  0
  9 10  1  0  0  0
 10 11  1  0  0  0
 20 21  1  0  0  0
M  END
> <minimizedAffinity>
-7.06355

$$$$



 21 20  0  0  0  0  0  0  0  0999 V2000
  -49.0176   58.8183   66.1202 C   0  0  0  0  0  0  0  0  0  0  0  0
  -48.5941   57.3997   65.8431 C   0  0  0  0  0  0  0  0  0  0  0  0
  -47.4925   56.9298   66.3725 C   0  0  0  0  0  0  0  0  0  0  0  0
  -46.7313   57.7510   67.3811 C   0  0  0  0  0  0  0  0  0  0  0  0
  -45.3827   58.1635   66.7900 C   0  0  0  0  0  0  0  0  0  0  0  0
  -45.0114   57.2116   65.6521 C   0  0  0  0  0  0  0  0  0  0  0  0
  -44.5514   58.0214   64.4381 C   0  0  0  0  0  0  0  0  0  0  0  0
  -43.0772   57.7283   64.1571 C   0  0  0  0  0  0  0  0  0  0  0  0
  -42.7277   56.3303   64.6706 C   0  0  0  0  0  0  0  0  0  0  0  0
  -41.4846   55.8151   63.9425 C   0  0  0  0  0  0  0  0  0  0  0  0
  -41.6865   55.9475   62.4318 C   0  0  0  0  0  0  0  0  0  0  0  0
  -50.5036   58.9811   65.7933 C   0  0  0  0  0  0  0  0  0  0  0  0
  -50.7626   60.4010   65.2875 C   0  0  0  0  0  0  0  0  0  0  0  0
  -51.5834   60.3418   63.9986 C   0  0  0  0  0  0  0  0  0  0  0  0
  -51.1524   59.1294   63.1737 C   0  0  0  0  0  0  0  0  0  0  0  0
  -50.0741   59.5486   62.1727 C   0  0  0  0  0  0  0  0  0  0  0  0
  -49.0032   58.4590   62.0888 C   0  0  0  0  0  0  0  0  0  0  0  0
  -49.0323   57.8306   60.7196 C   0  0  0  0  0  0  0  0  0  0  0  0
  -48.0048   57.6737   60.1046 O   0  0  0  0  0  0  0  0  0  0  0  0
  -50.2012   57.4470   60.1815 O   0  0  0  0  0  0  0  0  0  0  0  0
  -50.9987   57.5685   60.6581 H   0  0  0  0  0  0  0  0  0  0  0  0
 18 19  2  0  0  0
 18 20  1  0  0  0
 18 17  1  0  0  0
 17 16  1  0  0  0
 16 15  1  0  0  0
 15 14  1  0  0  0
 14 13  1  0  0  0
 13 12  1  0  0  0
 12  1  1  0  0  0
  1  2  1  0  0  0
  2  3  2  0  0  0
  3  4  1  0  0  0
  4  5  1  0  0  0
  5  6  1  0  0  0
  6  7  1  0  0  0
  7  8  1  0  0  0
  8  9  1  0  0  0
  9 10  1  0  0  0
 10 11  1  0  0  0
 20 21  1  0  0  0
M  END
> <minimizedAffinity>
-7.03030

$$$$
