


 21 20  0  0  0  0  0  0  0  0999 V2000
  -49.8119   59.1900   64.9360 C   0  0  0  0  0  0  0  0  0  0  0  0
  -51.0327   59.8643   64.3672 C   0  0  0  0  0  0  0  0  0  0  0  0
  -51.4765   59.5247   63.1830 C   0  0  0  0  0  0  0  0  0  0  0  0
  -50.8648   58.3549   62.4561 C   0  0  0  0  0  0  0  0  0  0  0  0
  -49.9866   58.8667   61.3136 C   0  0  0  0  0  0  0  0  0  0  0  0
  -50.2160   58.0079   60.0692 C   0  0  0  0  0  0  0  0  0  0  0  0
  -49.2679   56.8071   60.0953 C   0  0  0  0  0  0  0  0  0  0  0  0
  -47.9341   57.1952   59.4563 C   0  0  0  0  0  0  0  0  0  0  0  0
  -47.3791   56.0058   58.6704 C   0  0  0  0  0  0  0  0  0  0  0  0
  -47.1473   56.4188   57.2155 C   0  0  0  0  0  0  0  0  0  0  0  0
  -47.1840   57.9443   57.1061 C   0  0  0  0  0  0  0  0  0  0  0  0
  -48.6241   60.1532   64.8815 C   0  0  0  0  0  0  0  0  0  0  0  0
  -47.3337   59.3609   64.6666 C   0  0  0  0  0  0  0  0  0  0  0  0
  -47.3810   58.0747   65.4925 C   0  0  0  0  0  0  0  0  0  0  0  0
  -45.9584   57.5737   65.7395 C   0  0  0  0  0  0  0  0  0  0  0  0
  -44.9552   58.5905   65.1916 C   0  0  0  0  0  0  0  0  0  0  0  0
  -43.9100   57.8688   64.3386 C   0  0  0  0  0  0  0  0  0  0  0  0
  -43.1133   56.9305   65.2077 C   0  0  0  0  0  0  0  0  0  0  0  0
  -42.6378   57.3249   66.2455 O   0  0  0  0  0  0  0  0  0  0  0  0
  -42.9297   55.6559   64.8275 O   0  0  0  0  0  0  0  0  0  0  0  0
  -43.2984   55.3494   64.0225 H   0  0  0  0  0  0  0  0  0  0  0  0
 18 19  2  0  0  0
 18 20  1  0  0  0
 18 17  1  0  0  0
 17 16  1  0  0  0
 16 15  1  0  0  0
 15 14  1  0  0  0
 14 13  1  0  0  0
 13 12  1  0  0  0
 12  1  1  0  0  0
  1  2  1  0  0  0
  2  3  2  0  0  0
  3  4  1  0  0  0
  4  5  1  0  0  0
  5  6  1  0  0  0
  6  7  1  0  0  0
  7  8  1  0  0  0
  8  9  1  0  0  0
  9 10  1  0  0  0
 10 11  1  0  0  0
 20 21  1  0  0  0
M  END
> <minimizedAffinity>
-7.83076

$$$$



 21 20  0  0  0  0  0  0  0  0999 V2000
  -50.8601   58.3779   62.8120 C   0  0  0  0  0  0  0  0  0  0  0  0
  -51.2976   59.7151   63.3497 C   0  0  0  0  0  0  0  0  0  0  0  0
  -51.2038   59.9682   64.6310 C   0  0  0  0  0  0  0  0  0  0  0  0
  -50.5158   58.9867   65.5445 C   0  0  0  0  0  0  0  0  0  0  0  0
  -49.2082   59.5941   66.0541 C   0  0  0  0  0  0  0  0  0  0  0  0
  -48.0606   58.6129   65.8109 C   0  0  0  0  0  0  0  0  0  0  0  0
  -47.0007   58.7861   66.9008 C   0  0  0  0  0  0  0  0  0  0  0  0
  -45.6129   58.5412   66.3074 C   0  0  0  0  0  0  0  0  0  0  0  0
  -45.6980   58.5716   64.7802 C   0  0  0  0  0  0  0  0  0  0  0  0
  -44.3203   58.2715   64.1862 C   0  0  0  0  0  0  0  0  0  0  0  0
  -43.2423   58.5336   65.2396 C   0  0  0  0  0  0  0  0  0  0  0  0
  -49.5333   58.5364   62.0663 C   0  0  0  0  0  0  0  0  0  0  0  0
  -49.7915   59.1506   60.6897 C   0  0  0  0  0  0  0  0  0  0  0  0
  -49.6886   58.0640   59.6186 C   0  0  0  0  0  0  0  0  0  0  0  0
  -49.1635   56.7742   60.2482 C   0  0  0  0  0  0  0  0  0  0  0  0
  -48.1883   56.0945   59.2852 C   0  0  0  0  0  0  0  0  0  0  0  0
  -47.3117   57.1535   58.6135 C   0  0  0  0  0  0  0  0  0  0  0  0
  -47.2625   56.8972   57.1295 C   0  0  0  0  0  0  0  0  0  0  0  0
  -47.6147   57.7554   56.3560 O   0  0  0  0  0  0  0  0  0  0  0  0
  -46.8293   55.7137   56.6664 O   0  0  0  0  0  0  0  0  0  0  0  0
  -46.5559   55.0476   57.2661 H   0  0  0  0  0  0  0  0  0  0  0  0
 18 19  2  0  0  0
 18 20  1  0  0  0
 18 17  1  0  0  0
 17 16  1  0  0  0
 16 15  1  0  0  0
 15 14  1  0  0  0
 14 13  1  0  0  0
 13 12  1  0  0  0
 12  1  1  0  0  0
  1  2  1  0  0  0
  2  3  2  0  0  0
  3  4  1  0  0  0
  4  5  1  0  0  0
  5  6  1  0  0  0
  6  7  1  0  0  0
  7  8  1  0  0  0
  8  9  1  0  0  0
  9 10  1  0  0  0
 10 11  1  0  0  0
 20 21  1  0  0  0
M  END
> <minimizedAffinity>
-7.69698

$$$$



 21 20  0  0  0  0  0  0  0  0999 V2000
  -48.6383   60.3300   64.6267 C   0  0  0  0  0  0  0  0  0  0  0  0
  -49.7023   59.5771   65.3815 C   0  0  0  0  0  0  0  0  0  0  0  0
  -50.8534   59.3225   64.8118 C   0  0  0  0  0  0  0  0  0  0  0  0
  -51.0594   59.6418   63.3535 C   0  0  0  0  0  0  0  0  0  0  0  0
  -51.1445   58.3414   62.5533 C   0  0  0  0  0  0  0  0  0  0  0  0
  -49.7701   58.0096   61.9706 C   0  0  0  0  0  0  0  0  0  0  0  0
  -49.4638   58.9597   60.8110 C   0  0  0  0  0  0  0  0  0  0  0  0
  -49.5346   58.1930   59.4899 C   0  0  0  0  0  0  0  0  0  0  0  0
  -48.1953   57.5014   59.2286 C   0  0  0  0  0  0  0  0  0  0  0  0
  -47.7081   57.8479   57.8203 C   0  0  0  0  0  0  0  0  0  0  0  0
  -47.1872   56.5833   57.1349 C   0  0  0  0  0  0  0  0  0  0  0  0
  -47.3476   59.5084   64.6069 C   0  0  0  0  0  0  0  0  0  0  0  0
  -47.3451   58.5331   65.7851 C   0  0  0  0  0  0  0  0  0  0  0  0
  -46.0254   57.7608   65.8055 C   0  0  0  0  0  0  0  0  0  0  0  0
  -44.9634   58.5834   66.5346 C   0  0  0  0  0  0  0  0  0  0  0  0
  -43.6323   58.4776   65.7879 C   0  0  0  0  0  0  0  0  0  0  0  0
  -43.0492   57.0759   65.9787 C   0  0  0  0  0  0  0  0  0  0  0  0
  -42.6186   56.5251   64.6439 C   0  0  0  0  0  0  0  0  0  0  0  0
  -42.8122   57.1623   63.6363 O   0  0  0  0  0  0  0  0  0  0  0  0
  -42.0217   55.3244   64.5738 O   0  0  0  0  0  0  0  0  0  0  0  0
  -41.8713   54.8297   65.3552 H   0  0  0  0  0  0  0  0  0  0  0  0
 18 19  2  0  0  0
 18 20  1  0  0  0
 18 17  1  0  0  0
 17 16  1  0  0  0
 16 15  1  0  0  0
 15 14  1  0  0  0
 14 13  1  0  0  0
 13 12  1  0  0  0
 12  1  1  0  0  0
  1  2  1  0  0  0
  2  3  2  0  0  0
  3  4  1  0  0  0
  4  5  1  0  0  0
  5  6  1  0  0  0
  6  7  1  0  0  0
  7  8  1  0  0  0
  8  9  1  0  0  0
  9 10  1  0  0  0
 10 11  1  0  0  0
 20 21  1  0  0  0
M  END
> <minimizedAffinity>
-7.46871

$$$$



 21 20  0  0  0  0  0  0  0  0999 V2000
  -50.4371   60.0384   64.1495 C   0  0  0  0  0  0  0  0  0  0  0  0
  -50.6840   59.1832   65.3646 C   0  0  0  0  0  0  0  0  0  0  0  0
  -49.6768   58.6262   65.9890 C   0  0  0  0  0  0  0  0  0  0  0  0
  -48.2633   58.9642   65.5907 C   0  0  0  0  0  0  0  0  0  0  0  0
  -47.3886   59.0560   66.8416 C   0  0  0  0  0  0  0  0  0  0  0  0
  -46.0681   58.3247   66.5961 C   0  0  0  0  0  0  0  0  0  0  0  0
  -45.7320   58.3642   65.1039 C   0  0  0  0  0  0  0  0  0  0  0  0
  -44.2893   57.9036   64.8928 C   0  0  0  0  0  0  0  0  0  0  0  0
  -43.5868   57.7882   66.2469 C   0  0  0  0  0  0  0  0  0  0  0  0
  -42.3359   58.6692   66.2496 C   0  0  0  0  0  0  0  0  0  0  0  0
  -42.4429   59.7038   67.3715 C   0  0  0  0  0  0  0  0  0  0  0  0
  -51.3817   59.6116   63.0239 C   0  0  0  0  0  0  0  0  0  0  0  0
  -50.8891   58.2982   62.4144 C   0  0  0  0  0  0  0  0  0  0  0  0
  -49.4619   58.4798   61.8959 C   0  0  0  0  0  0  0  0  0  0  0  0
  -49.5000   58.8442   60.4121 C   0  0  0  0  0  0  0  0  0  0  0  0
  -49.3724   57.5735   59.5696 C   0  0  0  0  0  0  0  0  0  0  0  0
  -48.2896   57.7715   58.5069 C   0  0  0  0  0  0  0  0  0  0  0  0
  -47.6060   56.4564   58.2353 C   0  0  0  0  0  0  0  0  0  0  0  0
  -47.1641   56.2206   57.1363 O   0  0  0  0  0  0  0  0  0  0  0  0
  -47.4902   55.5450   59.2144 O   0  0  0  0  0  0  0  0  0  0  0  0
  -47.8328   55.7274   60.0672 H   0  0  0  0  0  0  0  0  0  0  0  0
 18 19  2  0  0  0
 18 20  1  0  0  0
 18 17  1  0  0  0
 17 16  1  0  0  0
 16 15  1  0  0  0
 15 14  1  0  0  0
 14 13  1  0  0  0
 13 12  1  0  0  0
 12  1  1  0  0  0
  1  2  1  0  0  0
  2  3  2  0  0  0
  3  4  1  0  0  0
  4  5  1  0  0  0
  5  6  1  0  0  0
  6  7  1  0  0  0
  7  8  1  0  0  0
  8  9  1  0  0  0
  9 10  1  0  0  0
 10 11  1  0  0  0
 20 21  1  0  0  0
M  END
> <minimizedAffinity>
-7.46207

$$$$



 21 20  0  0  0  0  0  0  0  0999 V2000
  -47.9761   59.1779   66.7827 C   0  0  0  0  0  0  0  0  0  0  0  0
  -48.6758   57.9809   66.1942 C   0  0  0  0  0  0  0  0  0  0  0  0
  -49.9118   58.0856   65.7747 C   0  0  0  0  0  0  0  0  0  0  0  0
  -50.5821   59.4347   65.7345 C   0  0  0  0  0  0  0  0  0  0  0  0
  -50.9958   59.7565   64.2980 C   0  0  0  0  0  0  0  0  0  0  0  0
  -49.7656   60.1821   63.4955 C   0  0  0  0  0  0  0  0  0  0  0  0
  -49.8594   59.6153   62.0773 C   0  0  0  0  0  0  0  0  0  0  0  0
  -50.0115   58.0952   62.1435 C   0  0  0  0  0  0  0  0  0  0  0  0
  -50.7910   57.6063   60.9214 C   0  0  0  0  0  0  0  0  0  0  0  0
  -50.0317   57.9828   59.6476 C   0  0  0  0  0  0  0  0  0  0  0  0
  -48.7734   57.1207   59.5299 C   0  0  0  0  0  0  0  0  0  0  0  0
  -46.5842   58.7682   67.2688 C   0  0  0  0  0  0  0  0  0  0  0  0
  -46.0257   57.6755   66.3559 C   0  0  0  0  0  0  0  0  0  0  0  0
  -45.0438   58.2948   65.3604 C   0  0  0  0  0  0  0  0  0  0  0  0
  -43.7419   58.6475   66.0792 C   0  0  0  0  0  0  0  0  0  0  0  0
  -42.9554   57.3681   66.3708 C   0  0  0  0  0  0  0  0  0  0  0  0
  -41.7252   57.3063   65.4632 C   0  0  0  0  0  0  0  0  0  0  0  0
  -41.9940   56.3670   64.3161 C   0  0  0  0  0  0  0  0  0  0  0  0
  -42.3547   56.8035   63.2493 O   0  0  0  0  0  0  0  0  0  0  0  0
  -41.8351   55.0438   64.4802 O   0  0  0  0  0  0  0  0  0  0  0  0
  -41.5553   54.7046   65.3076 H   0  0  0  0  0  0  0  0  0  0  0  0
 18 19  2  0  0  0
 18 20  1  0  0  0
 18 17  1  0  0  0
 17 16  1  0  0  0
 16 15  1  0  0  0
 15 14  1  0  0  0
 14 13  1  0  0  0
 13 12  1  0  0  0
 12  1  1  0  0  0
  1  2  1  0  0  0
  2  3  2  0  0  0
  3  4  1  0  0  0
  4  5  1  0  0  0
  5  6  1  0  0  0
  6  7  1  0  0  0
  7  8  1  0  0  0
  8  9  1  0  0  0
  9 10  1  0  0  0
 10 11  1  0  0  0
 20 21  1  0  0  0
M  END
> <minimizedAffinity>
-7.23611

$$$$



 21 20  0  0  0  0  0  0  0  0999 V2000
  -48.0691   59.5221   65.4386 C   0  0  0  0  0  0  0  0  0  0  0  0
  -49.0442   58.4212   65.7638 C   0  0  0  0  0  0  0  0  0  0  0  0
  -50.2998   58.5327   65.4095 C   0  0  0  0  0  0  0  0  0  0  0  0
  -50.7385   59.6844   64.5421 C   0  0  0  0  0  0  0  0  0  0  0  0
  -51.1519   59.1589   63.1668 C   0  0  0  0  0  0  0  0  0  0  0  0
  -49.9437   59.1760   62.2295 C   0  0  0  0  0  0  0  0  0  0  0  0
  -49.6979   57.7665   61.6871 C   0  0  0  0  0  0  0  0  0  0  0  0
  -49.9675   57.7439   60.1821 C   0  0  0  0  0  0  0  0  0  0  0  0
  -48.7632   58.3249   59.4388 C   0  0  0  0  0  0  0  0  0  0  0  0
  -47.8656   57.1854   58.9522 C   0  0  0  0  0  0  0  0  0  0  0  0
  -47.7093   57.2722   57.4329 C   0  0  0  0  0  0  0  0  0  0  0  0
  -46.7959   58.9174   64.8428 C   0  0  0  0  0  0  0  0  0  0  0  0
  -45.7782   58.6700   65.9573 C   0  0  0  0  0  0  0  0  0  0  0  0
  -44.6395   57.7993   65.4246 C   0  0  0  0  0  0  0  0  0  0  0  0
  -43.4581   57.8548   66.3927 C   0  0  0  0  0  0  0  0  0  0  0  0
  -42.7980   59.2328   66.3162 C   0  0  0  0  0  0  0  0  0  0  0  0
  -41.3059   59.0690   66.0199 C   0  0  0  0  0  0  0  0  0  0  0  0
  -40.6455   60.4233   66.0031 C   0  0  0  0  0  0  0  0  0  0  0  0
  -39.4931   60.5295   65.6576 O   0  0  0  0  0  0  0  0  0  0  0  0
  -41.3373   61.5123   66.3748 O   0  0  0  0  0  0  0  0  0  0  0  0
  -42.2314   61.4305   66.6429 H   0  0  0  0  0  0  0  0  0  0  0  0
 18 19  2  0  0  0
 18 20  1  0  0  0
 18 17  1  0  0  0
 17 16  1  0  0  0
 16 15  1  0  0  0
 15 14  1  0  0  0
 14 13  1  0  0  0
 13 12  1  0  0  0
 12  1  1  0  0  0
  1  2  1  0  0  0
  2  3  2  0  0  0
  3  4  1  0  0  0
  4  5  1  0  0  0
  5  6  1  0  0  0
  6  7  1  0  0  0
  7  8  1  0  0  0
  8  9  1  0  0  0
  9 10  1  0  0  0
 10 11  1  0  0  0
 20 21  1  0  0  0
M  END
> <minimizedAffinity>
-7.14787

$$$$



 21 20  0  0  0  0  0  0  0  0999 V2000
  -47.5535   58.9031   64.8738 C   0  0  0  0  0  0  0  0  0  0  0  0
  -48.9433   58.8791   65.4537 C   0  0  0  0  0  0  0  0  0  0  0  0
  -49.9831   58.8181   64.6601 C   0  0  0  0  0  0  0  0  0  0  0  0
  -49.7900   58.6143   63.1795 C   0  0  0  0  0  0  0  0  0  0  0  0
  -51.1467   58.3739   62.5161 C   0  0  0  0  0  0  0  0  0  0  0  0
  -50.9398   57.6914   61.1633 C   0  0  0  0  0  0  0  0  0  0  0  0
  -49.4828   57.8557   60.7257 C   0  0  0  0  0  0  0  0  0  0  0  0
  -49.0621   56.6485   59.8867 C   0  0  0  0  0  0  0  0  0  0  0  0
  -47.7173   56.9362   59.2166 C   0  0  0  0  0  0  0  0  0  0  0  0
  -47.9259   57.8995   58.0464 C   0  0  0  0  0  0  0  0  0  0  0  0
  -46.7771   57.7460   57.0480 C   0  0  0  0  0  0  0  0  0  0  0  0
  -46.5322   58.6452   65.9837 C   0  0  0  0  0  0  0  0  0  0  0  0
  -45.5295   57.5878   65.5194 C   0  0  0  0  0  0  0  0  0  0  0  0
  -44.7104   58.1392   64.3517 C   0  0  0  0  0  0  0  0  0  0  0  0
  -43.2213   58.0445   64.6825 C   0  0  0  0  0  0  0  0  0  0  0  0
  -42.8321   56.5776   64.8753 C   0  0  0  0  0  0  0  0  0  0  0  0
  -41.3994   56.3601   64.3840 C   0  0  0  0  0  0  0  0  0  0  0  0
  -41.4255   55.8822   62.9553 C   0  0  0  0  0  0  0  0  0  0  0  0
  -41.5706   56.6747   62.0555 O   0  0  0  0  0  0  0  0  0  0  0  0
  -41.2900   54.5746   62.6820 O   0  0  0  0  0  0  0  0  0  0  0  0
  -41.1774   53.9594   63.3797 H   0  0  0  0  0  0  0  0  0  0  0  0
 18 19  2  0  0  0
 18 20  1  0  0  0
 18 17  1  0  0  0
 17 16  1  0  0  0
 16 15  1  0  0  0
 15 14  1  0  0  0
 14 13  1  0  0  0
 13 12  1  0  0  0
 12  1  1  0  0  0
  1  2  1  0  0  0
  2  3  2  0  0  0
  3  4  1  0  0  0
  4  5  1  0  0  0
  5  6  1  0  0  0
  6  7  1  0  0  0
  7  8  1  0  0  0
  8  9  1  0  0  0
  9 10  1  0  0  0
 10 11  1  0  0  0
 20 21  1  0  0  0
M  END
> <minimizedAffinity>
-7.11494

$$$$



 21 20  0  0  0  0  0  0  0  0999 V2000
  -37.6008   59.2643   61.5488 C   0  0  0  0  0  0  0  0  0  0  0  0
  -37.6031   57.7798   61.8040 C   0  0  0  0  0  0  0  0  0  0  0  0
  -37.4280   57.3239   63.0189 C   0  0  0  0  0  0  0  0  0  0  0  0
  -37.3811   58.2798   64.1830 C   0  0  0  0  0  0  0  0  0  0  0  0
  -38.5213   57.9615   65.1510 C   0  0  0  0  0  0  0  0  0  0  0  0
  -39.2716   59.2484   65.4969 C   0  0  0  0  0  0  0  0  0  0  0  0
  -40.0991   59.6973   64.2906 C   0  0  0  0  0  0  0  0  0  0  0  0
  -41.4828   60.1486   64.7595 C   0  0  0  0  0  0  0  0  0  0  0  0
  -42.4030   60.3153   63.5488 C   0  0  0  0  0  0  0  0  0  0  0  0
  -41.8154   61.3635   62.6017 C   0  0  0  0  0  0  0  0  0  0  0  0
  -42.9499   62.1647   61.9603 C   0  0  0  0  0  0  0  0  0  0  0  0
  -38.9328   59.6763   60.9183 C   0  0  0  0  0  0  0  0  0  0  0  0
  -39.5214   58.4927   60.1491 C   0  0  0  0  0  0  0  0  0  0  0  0
  -41.0407   58.4758   60.3230 C   0  0  0  0  0  0  0  0  0  0  0  0
  -41.4908   57.0781   60.7471 C   0  0  0  0  0  0  0  0  0  0  0  0
  -41.0675   56.8214   62.1947 C   0  0  0  0  0  0  0  0  0  0  0  0
  -42.2970   56.8739   63.1038 C   0  0  0  0  0  0  0  0  0  0  0  0
  -41.9916   56.1737   64.4026 C   0  0  0  0  0  0  0  0  0  0  0  0
  -42.0322   56.7856   65.4431 O   0  0  0  0  0  0  0  0  0  0  0  0
  -41.6715   54.8697   64.4035 O   0  0  0  0  0  0  0  0  0  0  0  0
  -41.6399   54.3946   63.5965 H   0  0  0  0  0  0  0  0  0  0  0  0
 18 19  2  0  0  0
 18 20  1  0  0  0
 18 17  1  0  0  0
 17 16  1  0  0  0
 16 15  1  0  0  0
 15 14  1  0  0  0
 14 13  1  0  0  0
 13 12  1  0  0  0
 12  1  1  0  0  0
  1  2  1  0  0  0
  2  3  2  0  0  0
  3  4  1  0  0  0
  4  5  1  0  0  0
  5  6  1  0  0  0
  6  7  1  0  0  0
  7  8  1  0  0  0
  8  9  1  0  0  0
  9 10  1  0  0  0
 10 11  1  0  0  0
 20 21  1  0  0  0
M  END
> <minimizedAffinity>
-6.96523

$$$$



 21 20  0  0  0  0  0  0  0  0999 V2000
  -38.6792   59.0127   59.8453 C   0  0  0  0  0  0  0  0  0  0  0  0
  -39.6787   59.7175   60.7243 C   0  0  0  0  0  0  0  0  0  0  0  0
  -40.9481   59.4035   60.6549 C   0  0  0  0  0  0  0  0  0  0  0  0
  -41.3900   58.2337   59.8139 C   0  0  0  0  0  0  0  0  0  0  0  0
  -41.5178   56.9907   60.6956 C   0  0  0  0  0  0  0  0  0  0  0  0
  -41.8269   57.4135   62.1324 C   0  0  0  0  0  0  0  0  0  0  0  0
  -41.1838   56.4235   63.1059 C   0  0  0  0  0  0  0  0  0  0  0  0
  -41.0870   57.0603   64.4927 C   0  0  0  0  0  0  0  0  0  0  0  0
  -40.5918   58.5016   64.3593 C   0  0  0  0  0  0  0  0  0  0  0  0
  -40.9216   59.2749   65.6376 C   0  0  0  0  0  0  0  0  0  0  0  0
  -42.0928   58.6005   66.3543 C   0  0  0  0  0  0  0  0  0  0  0  0
  -37.4844   58.5630   60.6889 C   0  0  0  0  0  0  0  0  0  0  0  0
  -37.9724   57.6680   61.8291 C   0  0  0  0  0  0  0  0  0  0  0  0
  -36.7804   57.2335   62.6828 C   0  0  0  0  0  0  0  0  0  0  0  0
  -37.0324   57.6115   64.1421 C   0  0  0  0  0  0  0  0  0  0  0  0
  -36.2393   58.8732   64.4883 C   0  0  0  0  0  0  0  0  0  0  0  0
  -37.2063   59.9978   64.8639 C   0  0  0  0  0  0  0  0  0  0  0  0
  -37.4509   60.8724   63.6615 C   0  0  0  0  0  0  0  0  0  0  0  0
  -36.5366   61.1580   62.9258 O   0  0  0  0  0  0  0  0  0  0  0  0
  -38.6851   61.3367   63.4088 O   0  0  0  0  0  0  0  0  0  0  0  0
  -39.3948   61.1155   63.9792 H   0  0  0  0  0  0  0  0  0  0  0  0
 18 19  2  0  0  0
 18 20  1  0  0  0
 18 17  1  0  0  0
 17 16  1  0  0  0
 16 15  1  0  0  0
 15 14  1  0  0  0
 14 13  1  0  0  0
 13 12  1  0  0  0
 12  1  1  0  0  0
  1  2  1  0  0  0
  2  3  2  0  0  0
  3  4  1  0  0  0
  4  5  1  0  0  0
  5  6  1  0  0  0
  6  7  1  0  0  0
  7  8  1  0  0  0
  8  9  1  0  0  0
  9 10  1  0  0  0
 10 11  1  0  0  0
 20 21  1  0  0  0
M  END
> <minimizedAffinity>
-6.90265

$$$$
