


 21 20  0  0  0  0  0  0  0  0999 V2000
  -50.2508   59.3128   61.8031 C   0  0  0  0  0  0  0  0  0  0  0  0
  -51.3126   59.9579   62.6547 C   0  0  0  0  0  0  0  0  0  0  0  0
  -51.1206   60.1039   63.9417 C   0  0  0  0  0  0  0  0  0  0  0  0
  -49.7806   59.7721   64.5461 C   0  0  0  0  0  0  0  0  0  0  0  0
  -49.9016   58.5026   65.3901 C   0  0  0  0  0  0  0  0  0  0  0  0
  -48.6487   57.6454   65.2053 C   0  0  0  0  0  0  0  0  0  0  0  0
  -47.6603   58.3750   64.2932 C   0  0  0  0  0  0  0  0  0  0  0  0
  -46.3159   58.5184   65.0075 C   0  0  0  0  0  0  0  0  0  0  0  0
  -45.8837   57.1589   65.5600 C   0  0  0  0  0  0  0  0  0  0  0  0
  -44.3822   56.9703   65.3344 C   0  0  0  0  0  0  0  0  0  0  0  0
  -43.7279   58.3315   65.0907 C   0  0  0  0  0  0  0  0  0  0  0  0
  -50.4507   57.7958   61.7995 C   0  0  0  0  0  0  0  0  0  0  0  0
  -50.8881   57.3417   60.4061 C   0  0  0  0  0  0  0  0  0  0  0  0
  -49.6769   57.3203   59.4727 C   0  0  0  0  0  0  0  0  0  0  0  0
  -48.5182   56.5947   60.1560 C   0  0  0  0  0  0  0  0  0  0  0  0
  -47.7785   55.7327   59.1311 C   0  0  0  0  0  0  0  0  0  0  0  0
  -47.3035   56.6113   57.9720 C   0  0  0  0  0  0  0  0  0  0  0  0
  -47.6295   55.9372   56.6645 C   0  0  0  0  0  0  0  0  0  0  0  0
  -48.5913   56.2911   56.0254 O   0  0  0  0  0  0  0  0  0  0  0  0
  -46.8522   54.9410   56.2104 O   0  0  0  0  0  0  0  0  0  0  0  0
  -46.1059   54.6661   56.7058 H   0  0  0  0  0  0  0  0  0  0  0  0
 18 19  2  0  0  0
 18 20  1  0  0  0
 18 17  1  0  0  0
 17 16  1  0  0  0
 16 15  1  0  0  0
 15 14  1  0  0  0
 14 13  1  0  0  0
 13 12  1  0  0  0
 12  1  1  0  0  0
  1  2  1  0  0  0
  2  3  2  0  0  0
  3  4  1  0  0  0
  4  5  1  0  0  0
  5  6  1  0  0  0
  6  7  1  0  0  0
  7  8  1  0  0  0
  8  9  1  0  0  0
  9 10  1  0  0  0
 10 11  1  0  0  0
 20 21  1  0  0  0
M  END
> <minimizedAffinity>
-7.72224

$$$$



 21 20  0  0  0  0  0  0  0  0999 V2000
  -50.5673   60.5113   64.1284 C   0  0  0  0  0  0  0  0  0  0  0  0
  -51.4680   59.7960   63.1559 C   0  0  0  0  0  0  0  0  0  0  0  0
  -50.9608   59.2224   62.0937 C   0  0  0  0  0  0  0  0  0  0  0  0
  -49.4657   59.1411   61.9228 C   0  0  0  0  0  0  0  0  0  0  0  0
  -49.0549   57.6835   61.7100 C   0  0  0  0  0  0  0  0  0  0  0  0
  -49.7941   57.1166   60.4972 C   0  0  0  0  0  0  0  0  0  0  0  0
  -49.1225   55.8159   60.0516 C   0  0  0  0  0  0  0  0  0  0  0  0
  -47.8198   56.1386   59.3188 C   0  0  0  0  0  0  0  0  0  0  0  0
  -48.1103   57.0884   58.1552 C   0  0  0  0  0  0  0  0  0  0  0  0
  -47.0379   56.9179   57.0773 C   0  0  0  0  0  0  0  0  0  0  0  0
  -47.1662   55.5310   56.4447 C   0  0  0  0  0  0  0  0  0  0  0  0
  -50.3397   59.6292   65.3578 C   0  0  0  0  0  0  0  0  0  0  0  0
  -48.8411   59.5356   65.6487 C   0  0  0  0  0  0  0  0  0  0  0  0
  -48.1196   60.7145   64.9943 C   0  0  0  0  0  0  0  0  0  0  0  0
  -46.6086   60.5214   65.1188 C   0  0  0  0  0  0  0  0  0  0  0  0
  -46.3182   59.1869   65.8081 C   0  0  0  0  0  0  0  0  0  0  0  0
  -45.4682   58.3099   64.8864 C   0  0  0  0  0  0  0  0  0  0  0  0
  -45.0697   57.0531   65.6160 C   0  0  0  0  0  0  0  0  0  0  0  0
  -45.6722   56.7120   66.6056 O   0  0  0  0  0  0  0  0  0  0  0  0
  -44.0429   56.3133   65.1675 O   0  0  0  0  0  0  0  0  0  0  0  0
  -43.5752   56.5775   64.3998 H   0  0  0  0  0  0  0  0  0  0  0  0
 18 19  2  0  0  0
 18 20  1  0  0  0
 18 17  1  0  0  0
 17 16  1  0  0  0
 16 15  1  0  0  0
 15 14  1  0  0  0
 14 13  1  0  0  0
 13 12  1  0  0  0
 12  1  1  0  0  0
  1  2  1  0  0  0
  2  3  2  0  0  0
  3  4  1  0  0  0
  4  5  1  0  0  0
  5  6  1  0  0  0
  6  7  1  0  0  0
  7  8  1  0  0  0
  8  9  1  0  0  0
  9 10  1  0  0  0
 10 11  1  0  0  0
 20 21  1  0  0  0
M  END
> <minimizedAffinity>
-7.58540

$$$$



 21 20  0  0  0  0  0  0  0  0999 V2000
  -50.9586   59.3171   62.4650 C   0  0  0  0  0  0  0  0  0  0  0  0
  -51.0480   60.1683   63.7044 C   0  0  0  0  0  0  0  0  0  0  0  0
  -50.5906   59.7151   64.8446 C   0  0  0  0  0  0  0  0  0  0  0  0
  -49.8355   58.4117   64.8889 C   0  0  0  0  0  0  0  0  0  0  0  0
  -48.3795   58.6783   65.2731 C   0  0  0  0  0  0  0  0  0  0  0  0
  -47.6376   57.3487   65.4161 C   0  0  0  0  0  0  0  0  0  0  0  0
  -46.3518   57.5646   66.2170 C   0  0  0  0  0  0  0  0  0  0  0  0
  -45.1735   56.9382   65.4704 C   0  0  0  0  0  0  0  0  0  0  0  0
  -44.5736   57.9661   64.5091 C   0  0  0  0  0  0  0  0  0  0  0  0
  -44.4680   59.3211   65.2118 C   0  0  0  0  0  0  0  0  0  0  0  0
  -43.1194   59.9635   64.8815 C   0  0  0  0  0  0  0  0  0  0  0  0
  -49.8315   59.8355   61.5693 C   0  0  0  0  0  0  0  0  0  0  0  0
  -49.5754   58.8358   60.4406 C   0  0  0  0  0  0  0  0  0  0  0  0
  -49.7714   57.4127   60.9651 C   0  0  0  0  0  0  0  0  0  0  0  0
  -49.3324   56.4102   59.8982 C   0  0  0  0  0  0  0  0  0  0  0  0
  -48.6498   57.1528   58.7479 C   0  0  0  0  0  0  0  0  0  0  0  0
  -47.4466   56.3435   58.2596 C   0  0  0  0  0  0  0  0  0  0  0  0
  -47.7054   55.8549   56.8580 C   0  0  0  0  0  0  0  0  0  0  0  0
  -48.6900   56.2216   56.2622 O   0  0  0  0  0  0  0  0  0  0  0  0
  -46.8428   55.0094   56.2716 O   0  0  0  0  0  0  0  0  0  0  0  0
  -46.0789   54.7246   56.7333 H   0  0  0  0  0  0  0  0  0  0  0  0
 18 19  2  0  0  0
 18 20  1  0  0  0
 18 17  1  0  0  0
 17 16  1  0  0  0
 16 15  1  0  0  0
 15 14  1  0  0  0
 14 13  1  0  0  0
 13 12  1  0  0  0
 12  1  1  0  0  0
  1  2  1  0  0  0
  2  3  2  0  0  0
  3  4  1  0  0  0
  4  5  1  0  0  0
  5  6  1  0  0  0
  6  7  1  0  0  0
  7  8  1  0  0  0
  8  9  1  0  0  0
  9 10  1  0  0  0
 10 11  1  0  0  0
 20 21  1  0  0  0
M  END
> <minimizedAffinity>
-7.55676

$$$$



 21 20  0  0  0  0  0  0  0  0999 V2000
  -51.3424   59.8757   62.9075 C   0  0  0  0  0  0  0  0  0  0  0  0
  -50.1544   60.2461   62.0589 C   0  0  0  0  0  0  0  0  0  0  0  0
  -49.6637   59.3818   61.2063 C   0  0  0  0  0  0  0  0  0  0  0  0
  -50.3780   58.0780   60.9596 C   0  0  0  0  0  0  0  0  0  0  0  0
  -49.7743   57.3890   59.7352 C   0  0  0  0  0  0  0  0  0  0  0  0
  -49.5377   55.9105   60.0462 C   0  0  0  0  0  0  0  0  0  0  0  0
  -48.0559   55.5793   59.8564 C   0  0  0  0  0  0  0  0  0  0  0  0
  -47.4879   56.4167   58.7101 C   0  0  0  0  0  0  0  0  0  0  0  0
  -46.5452   55.5558   57.8672 C   0  0  0  0  0  0  0  0  0  0  0  0
  -47.0218   55.5506   56.4133 C   0  0  0  0  0  0  0  0  0  0  0  0
  -48.3257   56.3427   56.3008 C   0  0  0  0  0  0  0  0  0  0  0  0
  -51.1059   60.3378   64.3470 C   0  0  0  0  0  0  0  0  0  0  0  0
  -49.7491   59.8247   64.8316 C   0  0  0  0  0  0  0  0  0  0  0  0
  -49.8711   58.3518   65.2242 C   0  0  0  0  0  0  0  0  0  0  0  0
  -48.7195   57.5608   64.6043 C   0  0  0  0  0  0  0  0  0  0  0  0
  -47.5452   58.5006   64.3247 C   0  0  0  0  0  0  0  0  0  0  0  0
  -46.2737   57.9324   64.9581 C   0  0  0  0  0  0  0  0  0  0  0  0
  -45.8072   58.8501   66.0584 C   0  0  0  0  0  0  0  0  0  0  0  0
  -44.7907   59.4882   65.9229 O   0  0  0  0  0  0  0  0  0  0  0  0
  -46.5202   58.9571   67.1911 O   0  0  0  0  0  0  0  0  0  0  0  0
  -47.3089   58.4623   67.2967 H   0  0  0  0  0  0  0  0  0  0  0  0
 18 19  2  0  0  0
 18 20  1  0  0  0
 18 17  1  0  0  0
 17 16  1  0  0  0
 16 15  1  0  0  0
 15 14  1  0  0  0
 14 13  1  0  0  0
 13 12  1  0  0  0
 12  1  1  0  0  0
  1  2  1  0  0  0
  2  3  2  0  0  0
  3  4  1  0  0  0
  4  5  1  0  0  0
  5  6  1  0  0  0
  6  7  1  0  0  0
  7  8  1  0  0  0
  8  9  1  0  0  0
  9 10  1  0  0  0
 10 11  1  0  0  0
 20 21  1  0  0  0
M  END
> <minimizedAffinity>
-7.50195

$$$$



 21 20  0  0  0  0  0  0  0  0999 V2000
  -50.2573   59.7298   64.8090 C   0  0  0  0  0  0  0  0  0  0  0  0
  -49.9223   58.2986   65.1375 C   0  0  0  0  0  0  0  0  0  0  0  0
  -48.6760   57.8970   65.1195 C   0  0  0  0  0  0  0  0  0  0  0  0
  -47.5651   58.8965   64.9251 C   0  0  0  0  0  0  0  0  0  0  0  0
  -46.6096   58.8359   66.1176 C   0  0  0  0  0  0  0  0  0  0  0  0
  -45.6430   57.6645   65.9382 C   0  0  0  0  0  0  0  0  0  0  0  0
  -44.8742   57.8327   64.6260 C   0  0  0  0  0  0  0  0  0  0  0  0
  -43.7121   58.8042   64.8356 C   0  0  0  0  0  0  0  0  0  0  0  0
  -42.6740   58.1664   65.7607 C   0  0  0  0  0  0  0  0  0  0  0  0
  -41.6801   59.2331   66.2247 C   0  0  0  0  0  0  0  0  0  0  0  0
  -42.4047   60.2614   67.0952 C   0  0  0  0  0  0  0  0  0  0  0  0
  -50.8384   59.8071   63.3955 C   0  0  0  0  0  0  0  0  0  0  0  0
  -49.7835   60.3662   62.4397 C   0  0  0  0  0  0  0  0  0  0  0  0
  -49.7556   59.5260   61.1623 C   0  0  0  0  0  0  0  0  0  0  0  0
  -49.5596   58.0539   61.5234 C   0  0  0  0  0  0  0  0  0  0  0  0
  -50.4260   57.1833   60.6113 C   0  0  0  0  0  0  0  0  0  0  0  0
  -50.0671   57.4591   59.1497 C   0  0  0  0  0  0  0  0  0  0  0  0
  -48.7636   56.7807   58.8161 C   0  0  0  0  0  0  0  0  0  0  0  0
  -47.9407   57.3516   58.1411 O   0  0  0  0  0  0  0  0  0  0  0  0
  -48.5175   55.5402   59.2670 O   0  0  0  0  0  0  0  0  0  0  0  0
  -49.1556   55.0969   59.7907 H   0  0  0  0  0  0  0  0  0  0  0  0
 18 19  2  0  0  0
 18 20  1  0  0  0
 18 17  1  0  0  0
 17 16  1  0  0  0
 16 15  1  0  0  0
 15 14  1  0  0  0
 14 13  1  0  0  0
 13 12  1  0  0  0
 12  1  1  0  0  0
  1  2  1  0  0  0
  2  3  2  0  0  0
  3  4  1  0  0  0
  4  5  1  0  0  0
  5  6  1  0  0  0
  6  7  1  0  0  0
  7  8  1  0  0  0
  8  9  1  0  0  0
  9 10  1  0  0  0
 10 11  1  0  0  0
 20 21  1  0  0  0
M  END
> <minimizedAffinity>
-7.40550

$$$$



 21 20  0  0  0  0  0  0  0  0999 V2000
  -49.5259   60.4126   64.2383 C   0  0  0  0  0  0  0  0  0  0  0  0
  -50.9979   60.2486   63.9644 C   0  0  0  0  0  0  0  0  0  0  0  0
  -51.4024   59.8138   62.7973 C   0  0  0  0  0  0  0  0  0  0  0  0
  -50.3976   59.3295   61.7840 C   0  0  0  0  0  0  0  0  0  0  0  0
  -50.3011   57.8047   61.8495 C   0  0  0  0  0  0  0  0  0  0  0  0
  -50.9445   57.1985   60.6016 C   0  0  0  0  0  0  0  0  0  0  0  0
  -50.0178   57.3984   59.4005 C   0  0  0  0  0  0  0  0  0  0  0  0
  -48.5901   57.0101   59.7865 C   0  0  0  0  0  0  0  0  0  0  0  0
  -48.3153   55.5712   59.3454 C   0  0  0  0  0  0  0  0  0  0  0  0
  -47.1236   55.5502   58.3861 C   0  0  0  0  0  0  0  0  0  0  0  0
  -47.6284   55.6188   56.9436 C   0  0  0  0  0  0  0  0  0  0  0  0
  -49.1614   59.6768   65.5295 C   0  0  0  0  0  0  0  0  0  0  0  0
  -47.8571   60.2456   66.0904 C   0  0  0  0  0  0  0  0  0  0  0  0
  -46.7195   59.9833   65.1027 C   0  0  0  0  0  0  0  0  0  0  0  0
  -46.0995   58.6159   65.3889 C   0  0  0  0  0  0  0  0  0  0  0  0
  -44.6757   58.5727   64.8311 C   0  0  0  0  0  0  0  0  0  0  0  0
  -43.9320   59.8494   65.2284 C   0  0  0  0  0  0  0  0  0  0  0  0
  -42.8028   59.5025   66.1637 C   0  0  0  0  0  0  0  0  0  0  0  0
  -42.2271   58.4468   66.0508 O   0  0  0  0  0  0  0  0  0  0  0  0
  -42.4376   60.3661   67.1249 O   0  0  0  0  0  0  0  0  0  0  0  0
  -42.8839   61.1853   67.2129 H   0  0  0  0  0  0  0  0  0  0  0  0
 18 19  2  0  0  0
 18 20  1  0  0  0
 18 17  1  0  0  0
 17 16  1  0  0  0
 16 15  1  0  0  0
 15 14  1  0  0  0
 14 13  1  0  0  0
 13 12  1  0  0  0
 12  1  1  0  0  0
  1  2  1  0  0  0
  2  3  2  0  0  0
  3  4  1  0  0  0
  4  5  1  0  0  0
  5  6  1  0  0  0
  6  7  1  0  0  0
  7  8  1  0  0  0
  8  9  1  0  0  0
  9 10  1  0  0  0
 10 11  1  0  0  0
 20 21  1  0  0  0
M  END
> <minimizedAffinity>
-7.30606

$$$$



 21 20  0  0  0  0  0  0  0  0999 V2000
  -47.5047   58.2763   64.3693 C   0  0  0  0  0  0  0  0  0  0  0  0
  -48.7772   57.6574   64.8854 C   0  0  0  0  0  0  0  0  0  0  0  0
  -49.8040   58.4166   65.1752 C   0  0  0  0  0  0  0  0  0  0  0  0
  -49.7705   59.8869   64.8467 C   0  0  0  0  0  0  0  0  0  0  0  0
  -51.1020   60.2999   64.2181 C   0  0  0  0  0  0  0  0  0  0  0  0
  -51.2016   59.7202   62.8064 C   0  0  0  0  0  0  0  0  0  0  0  0
  -50.0216   60.2142   61.9668 C   0  0  0  0  0  0  0  0  0  0  0  0
  -49.6578   59.1562   60.9245 C   0  0  0  0  0  0  0  0  0  0  0  0
  -50.4242   57.8652   61.2183 C   0  0  0  0  0  0  0  0  0  0  0  0
  -49.8157   56.7158   60.4124 C   0  0  0  0  0  0  0  0  0  0  0  0
  -49.5584   57.1790   58.9773 C   0  0  0  0  0  0  0  0  0  0  0  0
  -46.4862   58.3745   65.5071 C   0  0  0  0  0  0  0  0  0  0  0  0
  -45.6900   57.0715   65.5935 C   0  0  0  0  0  0  0  0  0  0  0  0
  -44.2350   57.3356   65.2039 C   0  0  0  0  0  0  0  0  0  0  0  0
  -44.0718   58.8012   64.8022 C   0  0  0  0  0  0  0  0  0  0  0  0
  -42.9127   59.4205   65.5854 C   0  0  0  0  0  0  0  0  0  0  0  0
  -41.7817   58.3986   65.7180 C   0  0  0  0  0  0  0  0  0  0  0  0
  -40.5063   58.9874   65.1731 C   0  0  0  0  0  0  0  0  0  0  0  0
  -40.2956   60.1723   65.2752 O   0  0  0  0  0  0  0  0  0  0  0  0
  -39.6044   58.1953   64.5713 O   0  0  0  0  0  0  0  0  0  0  0  0
  -39.7674   57.2761   64.4917 H   0  0  0  0  0  0  0  0  0  0  0  0
 18 19  2  0  0  0
 18 20  1  0  0  0
 18 17  1  0  0  0
 17 16  1  0  0  0
 16 15  1  0  0  0
 15 14  1  0  0  0
 14 13  1  0  0  0
 13 12  1  0  0  0
 12  1  1  0  0  0
  1  2  1  0  0  0
  2  3  2  0  0  0
  3  4  1  0  0  0
  4  5  1  0  0  0
  5  6  1  0  0  0
  6  7  1  0  0  0
  7  8  1  0  0  0
  8  9  1  0  0  0
  9 10  1  0  0  0
 10 11  1  0  0  0
 20 21  1  0  0  0
M  END
> <minimizedAffinity>
-7.30323

$$$$



 21 20  0  0  0  0  0  0  0  0999 V2000
  -49.3238   59.1840   62.6645 C   0  0  0  0  0  0  0  0  0  0  0  0
  -50.3006   58.8648   63.7657 C   0  0  0  0  0  0  0  0  0  0  0  0
  -49.8856   58.2747   64.8585 C   0  0  0  0  0  0  0  0  0  0  0  0
  -48.4116   58.0560   65.0835 C   0  0  0  0  0  0  0  0  0  0  0  0
  -47.8492   59.1995   65.9288 C   0  0  0  0  0  0  0  0  0  0  0  0
  -46.3333   59.2754   65.7412 C   0  0  0  0  0  0  0  0  0  0  0  0
  -45.7884   57.8830   65.4160 C   0  0  0  0  0  0  0  0  0  0  0  0
  -44.5140   58.0151   64.5814 C   0  0  0  0  0  0  0  0  0  0  0  0
  -43.6299   59.1160   65.1703 C   0  0  0  0  0  0  0  0  0  0  0  0
  -42.3814   58.4889   65.7940 C   0  0  0  0  0  0  0  0  0  0  0  0
  -41.7105   59.5030   66.7224 C   0  0  0  0  0  0  0  0  0  0  0  0
  -50.0209   59.0513   61.3088 C   0  0  0  0  0  0  0  0  0  0  0  0
  -50.8527   57.7680   61.2858 C   0  0  0  0  0  0  0  0  0  0  0  0
  -50.1895   56.7465   60.3612 C   0  0  0  0  0  0  0  0  0  0  0  0
  -49.3344   57.4750   59.3248 C   0  0  0  0  0  0  0  0  0  0  0  0
  -47.9900   56.7600   59.1766 C   0  0  0  0  0  0  0  0  0  0  0  0
  -47.4621   56.9538   57.7537 C   0  0  0  0  0  0  0  0  0  0  0  0
  -47.4102   55.6217   57.0514 C   0  0  0  0  0  0  0  0  0  0  0  0
  -48.0850   54.7023   57.4489 O   0  0  0  0  0  0  0  0  0  0  0  0
  -46.6118   55.4556   55.9847 O   0  0  0  0  0  0  0  0  0  0  0  0
  -46.0881   56.1686   55.6759 H   0  0  0  0  0  0  0  0  0  0  0  0
 18 19  2  0  0  0
 18 20  1  0  0  0
 18 17  1  0  0  0
 17 16  1  0  0  0
 16 15  1  0  0  0
 15 14  1  0  0  0
 14 13  1  0  0  0
 13 12  1  0  0  0
 12  1  1  0  0  0
  1  2  1  0  0  0
  2  3  2  0  0  0
  3  4  1  0  0  0
  4  5  1  0  0  0
  5  6  1  0  0  0
  6  7  1  0  0  0
  7  8  1  0  0  0
  8  9  1  0  0  0
  9 10  1  0  0  0
 10 11  1  0  0  0
 20 21  1  0  0  0
M  END
> <minimizedAffinity>
-7.14493

$$$$



 21 20  0  0  0  0  0  0  0  0999 V2000
  -48.0964   60.5380   65.9550 C   0  0  0  0  0  0  0  0  0  0  0  0
  -47.9318   60.9711   64.5219 C   0  0  0  0  0  0  0  0  0  0  0  0
  -48.8648   60.6993   63.6443 C   0  0  0  0  0  0  0  0  0  0  0  0
  -50.1697   60.0946   64.0946 C   0  0  0  0  0  0  0  0  0  0  0  0
  -50.1023   58.5733   63.9548 C   0  0  0  0  0  0  0  0  0  0  0  0
  -49.6826   58.2096   62.5299 C   0  0  0  0  0  0  0  0  0  0  0  0
  -50.9226   57.8530   61.7073 C   0  0  0  0  0  0  0  0  0  0  0  0
  -50.5104   57.0059   60.5029 C   0  0  0  0  0  0  0  0  0  0  0  0
  -49.7547   57.8788   59.4993 C   0  0  0  0  0  0  0  0  0  0  0  0
  -48.7873   57.0095   58.6936 C   0  0  0  0  0  0  0  0  0  0  0  0
  -48.4769   55.7319   59.4758 C   0  0  0  0  0  0  0  0  0  0  0  0
  -47.0970   59.4228   66.2698 C   0  0  0  0  0  0  0  0  0  0  0  0
  -45.9892   59.4173   65.2153 C   0  0  0  0  0  0  0  0  0  0  0  0
  -45.6638   57.9751   64.8245 C   0  0  0  0  0  0  0  0  0  0  0  0
  -44.1526   57.8198   64.6571 C   0  0  0  0  0  0  0  0  0  0  0  0
  -43.4633   59.1481   64.9751 C   0  0  0  0  0  0  0  0  0  0  0  0
  -42.2547   58.8934   65.8782 C   0  0  0  0  0  0  0  0  0  0  0  0
  -41.8954   60.1628   66.6061 C   0  0  0  0  0  0  0  0  0  0  0  0
  -40.9993   60.8614   66.1965 O   0  0  0  0  0  0  0  0  0  0  0  0
  -42.5695   60.5165   67.7121 O   0  0  0  0  0  0  0  0  0  0  0  0
  -43.2647   59.9748   68.0304 H   0  0  0  0  0  0  0  0  0  0  0  0
 18 19  2  0  0  0
 18 20  1  0  0  0
 18 17  1  0  0  0
 17 16  1  0  0  0
 16 15  1  0  0  0
 15 14  1  0  0  0
 14 13  1  0  0  0
 13 12  1  0  0  0
 12  1  1  0  0  0
  1  2  1  0  0  0
  2  3  2  0  0  0
  3  4  1  0  0  0
  4  5  1  0  0  0
  5  6  1  0  0  0
  6  7  1  0  0  0
  7  8  1  0  0  0
  8  9  1  0  0  0
  9 10  1  0  0  0
 10 11  1  0  0  0
 20 21  1  0  0  0
M  END
> <minimizedAffinity>
-7.09001

$$$$
