


 21 20  0  0  0  0  0  0  0  0999 V2000
  -50.3899   58.3315   62.3962 C   0  0  0  0  0  0  0  0  0  0  0  0
  -51.0033   57.4956   61.2845 C   0  0  0  0  0  0  0  0  0  0  0  0
  -49.9504   56.9786   60.3204 C   0  0  0  0  0  0  0  0  0  0  0  0
  -48.6495   57.7646   60.4536 C   0  0  0  0  0  0  0  0  0  0  0  0
  -48.3688   58.5356   59.1713 C   0  0  0  0  0  0  0  0  0  0  0  0
  -47.1759   57.9486   58.4334 C   0  0  0  0  0  0  0  0  0  0  0  0
  -47.6064   57.2953   57.1241 C   0  0  0  0  0  0  0  0  0  0  0  0
  -47.5077   55.7874   57.2493 C   0  0  0  0  0  0  0  0  0  0  0  0
  -47.5330   55.2454   58.3838 O   0  0  0  0  0  0  0  0  0  0  0  0
  -47.3953   55.0694   56.2222 O   0  0  0  0  0  0  0  0  0  0  0  0
  -47.3757   55.4657   55.3733 H   0  0  0  0  0  0  0  0  0  0  0  0
  -51.3646   59.4346   62.7261 C   0  0  0  0  0  0  0  0  0  0  0  0
  -51.2153   60.1947   63.9747 C   0  0  0  0  0  0  0  0  0  0  0  0
  -49.8735   60.2642   64.6692 C   0  0  0  0  0  0  0  0  0  0  0  0
  -48.8890   61.0847   63.8367 C   0  0  0  0  0  0  0  0  0  0  0  0
  -47.7303   61.6460   64.6564 C   0  0  0  0  0  0  0  0  0  0  0  0
  -47.1698   60.6034   65.6274 C   0  0  0  0  0  0  0  0  0  0  0  0
  -45.7622   60.0976   65.2892 C   0  0  0  0  0  0  0  0  0  0  0  0
  -45.6872   58.5652   65.2681 C   0  0  0  0  0  0  0  0  0  0  0  0
  -47.0285   57.9133   64.9226 C   0  0  0  0  0  0  0  0  0  0  0  0
  -47.3950   56.7466   65.8480 C   0  0  0  0  0  0  0  0  0  0  0  0
  8  9  2  0  0  0
  8  7  1  0  0  0
  8 10  1  0  0  0
  7  6  1  0  0  0
  6  5  1  0  0  0
  5  4  1  0  0  0
  4  3  1  0  0  0
  3  2  1  0  0  0
  2  1  1  0  0  0
  1 12  1  0  0  0
 12 13  1  0  0  0
 13 14  1  0  0  0
 14 15  1  0  0  0
 15 16  1  0  0  0
 16 17  1  0  0  0
 17 18  1  0  0  0
 18 19  1  0  0  0
 19 20  1  0  0  0
 20 21  1  0  0  0
 10 11  1  0  0  0
M  END
> <minimizedAffinity>
-7.47406

$$$$



 21 20  0  0  0  0  0  0  0  0999 V2000
  -50.9949   59.3898   62.6582 C   0  0  0  0  0  0  0  0  0  0  0  0
  -49.8032   59.8801   61.8519 C   0  0  0  0  0  0  0  0  0  0  0  0
  -49.0079   58.7287   61.2629 C   0  0  0  0  0  0  0  0  0  0  0  0
  -49.9320   57.6569   60.6925 C   0  0  0  0  0  0  0  0  0  0  0  0
  -49.7890   57.5927   59.1783 C   0  0  0  0  0  0  0  0  0  0  0  0
  -48.3293   57.4559   58.7748 C   0  0  0  0  0  0  0  0  0  0  0  0
  -48.0138   56.0325   58.3268 C   0  0  0  0  0  0  0  0  0  0  0  0
  -47.8607   55.9941   56.8187 C   0  0  0  0  0  0  0  0  0  0  0  0
  -48.3535   56.9094   56.1109 O   0  0  0  0  0  0  0  0  0  0  0  0
  -47.2452   55.0465   56.2653 O   0  0  0  0  0  0  0  0  0  0  0  0
  -46.8752   54.3608   56.7858 H   0  0  0  0  0  0  0  0  0  0  0  0
  -51.0342   60.1841   63.9401 C   0  0  0  0  0  0  0  0  0  0  0  0
  -50.0908   59.8740   65.0231 C   0  0  0  0  0  0  0  0  0  0  0  0
  -49.9088   58.4471   65.4904 C   0  0  0  0  0  0  0  0  0  0  0  0
  -48.4411   58.0367   65.3773 C   0  0  0  0  0  0  0  0  0  0  0  0
  -47.5644   59.1094   64.7367 C   0  0  0  0  0  0  0  0  0  0  0  0
  -46.1019   58.9744   65.1692 C   0  0  0  0  0  0  0  0  0  0  0  0
  -45.3330   60.2975   65.2666 C   0  0  0  0  0  0  0  0  0  0  0  0
  -43.8177   60.0980   65.1304 C   0  0  0  0  0  0  0  0  0  0  0  0
  -43.0955   60.1224   66.4800 C   0  0  0  0  0  0  0  0  0  0  0  0
  -42.2903   58.8484   66.7630 C   0  0  0  0  0  0  0  0  0  0  0  0
  8  9  2  0  0  0
  8  7  1  0  0  0
  8 10  1  0  0  0
  7  6  1  0  0  0
  6  5  1  0  0  0
  5  4  1  0  0  0
  4  3  1  0  0  0
  3  2  1  0  0  0
  2  1  1  0  0  0
  1 12  1  0  0  0
 12 13  1  0  0  0
 13 14  1  0  0  0
 14 15  1  0  0  0
 15 16  1  0  0  0
 16 17  1  0  0  0
 17 18  1  0  0  0
 18 19  1  0  0  0
 19 20  1  0  0  0
 20 21  1  0  0  0
 10 11  1  0  0  0
M  END
> <minimizedAffinity>
-7.34825

$$$$



 21 20  0  0  0  0  0  0  0  0999 V2000
  -51.2523   59.2100   62.7000 C   0  0  0  0  0  0  0  0  0  0  0  0
  -50.3011   58.1592   62.1506 C   0  0  0  0  0  0  0  0  0  0  0  0
  -50.8660   57.4758   60.9180 C   0  0  0  0  0  0  0  0  0  0  0  0
  -50.1071   57.8924   59.6617 C   0  0  0  0  0  0  0  0  0  0  0  0
  -48.6319   58.0903   59.9813 C   0  0  0  0  0  0  0  0  0  0  0  0
  -47.7750   57.0681   59.2512 C   0  0  0  0  0  0  0  0  0  0  0  0
  -47.4849   57.5144   57.8218 C   0  0  0  0  0  0  0  0  0  0  0  0
  -47.8580   56.4069   56.8556 C   0  0  0  0  0  0  0  0  0  0  0  0
  -47.7868   55.2043   57.2163 O   0  0  0  0  0  0  0  0  0  0  0  0
  -48.2361   56.6819   55.6875 O   0  0  0  0  0  0  0  0  0  0  0  0
  -48.2918   57.5755   55.4112 H   0  0  0  0  0  0  0  0  0  0  0  0
  -50.4752   60.0628   63.6719 C   0  0  0  0  0  0  0  0  0  0  0  0
  -49.0513   60.3344   63.4318 C   0  0  0  0  0  0  0  0  0  0  0  0
  -47.9912   59.6002   64.2221 C   0  0  0  0  0  0  0  0  0  0  0  0
  -47.2554   60.5689   65.1471 C   0  0  0  0  0  0  0  0  0  0  0  0
  -45.8806   60.0635   65.5763 C   0  0  0  0  0  0  0  0  0  0  0  0
  -45.9695   59.1775   66.8218 C   0  0  0  0  0  0  0  0  0  0  0  0
  -45.6657   57.6938   66.5813 C   0  0  0  0  0  0  0  0  0  0  0  0
  -45.0292   57.4485   65.2068 C   0  0  0  0  0  0  0  0  0  0  0  0
  -43.5553   57.0457   65.3023 C   0  0  0  0  0  0  0  0  0  0  0  0
  -42.5977   58.2430   65.3362 C   0  0  0  0  0  0  0  0  0  0  0  0
  8  9  2  0  0  0
  8  7  1  0  0  0
  8 10  1  0  0  0
  7  6  1  0  0  0
  6  5  1  0  0  0
  5  4  1  0  0  0
  4  3  1  0  0  0
  3  2  1  0  0  0
  2  1  1  0  0  0
  1 12  1  0  0  0
 12 13  1  0  0  0
 13 14  1  0  0  0
 14 15  1  0  0  0
 15 16  1  0  0  0
 16 17  1  0  0  0
 17 18  1  0  0  0
 18 19  1  0  0  0
 19 20  1  0  0  0
 20 21  1  0  0  0
 10 11  1  0  0  0
M  END
> <minimizedAffinity>
-7.22247

$$$$



 21 20  0  0  0  0  0  0  0  0999 V2000
  -50.0148   59.6242   65.2423 C   0  0  0  0  0  0  0  0  0  0  0  0
  -48.6828   60.2089   64.8012 C   0  0  0  0  0  0  0  0  0  0  0  0
  -47.7460   59.1399   64.2676 C   0  0  0  0  0  0  0  0  0  0  0  0
  -47.6865   57.9409   65.2092 C   0  0  0  0  0  0  0  0  0  0  0  0
  -46.3795   57.9511   65.9898 C   0  0  0  0  0  0  0  0  0  0  0  0
  -45.2936   57.1927   65.2428 C   0  0  0  0  0  0  0  0  0  0  0  0
  -44.2298   58.1439   64.7043 C   0  0  0  0  0  0  0  0  0  0  0  0
  -42.9620   58.0092   65.5251 C   0  0  0  0  0  0  0  0  0  0  0  0
  -42.9813   57.3887   66.6188 O   0  0  0  0  0  0  0  0  0  0  0  0
  -41.8851   58.5197   65.1216 O   0  0  0  0  0  0  0  0  0  0  0  0
  -41.8626   58.9836   64.3077 H   0  0  0  0  0  0  0  0  0  0  0  0
  -51.0968   60.3001   64.4372 C   0  0  0  0  0  0  0  0  0  0  0  0
  -51.3423   59.8876   63.0485 C   0  0  0  0  0  0  0  0  0  0  0  0
  -50.9644   58.4975   62.5879 C   0  0  0  0  0  0  0  0  0  0  0  0
  -50.0824   58.5746   61.3423 C   0  0  0  0  0  0  0  0  0  0  0  0
  -50.2734   57.3924   60.3960 C   0  0  0  0  0  0  0  0  0  0  0  0
  -48.9467   56.9479   59.7745 C   0  0  0  0  0  0  0  0  0  0  0  0
  -48.0451   58.0907   59.2922 C   0  0  0  0  0  0  0  0  0  0  0  0
  -47.1297   57.6588   58.1389 C   0  0  0  0  0  0  0  0  0  0  0  0
  -47.9064   57.0751   56.9558 C   0  0  0  0  0  0  0  0  0  0  0  0
  -47.4512   55.6637   56.5652 C   0  0  0  0  0  0  0  0  0  0  0  0
  8  9  2  0  0  0
  8  7  1  0  0  0
  8 10  1  0  0  0
  7  6  1  0  0  0
  6  5  1  0  0  0
  5  4  1  0  0  0
  4  3  1  0  0  0
  3  2  1  0  0  0
  2  1  1  0  0  0
  1 12  1  0  0  0
 12 13  1  0  0  0
 13 14  1  0  0  0
 14 15  1  0  0  0
 15 16  1  0  0  0
 16 17  1  0  0  0
 17 18  1  0  0  0
 18 19  1  0  0  0
 19 20  1  0  0  0
 20 21  1  0  0  0
 10 11  1  0  0  0
M  END
> <minimizedAffinity>
-7.04688

$$$$



 21 20  0  0  0  0  0  0  0  0999 V2000
  -47.6655   59.6260   64.9170 C   0  0  0  0  0  0  0  0  0  0  0  0
  -47.5125   59.7667   66.4229 C   0  0  0  0  0  0  0  0  0  0  0  0
  -46.1406   59.3194   66.8951 C   0  0  0  0  0  0  0  0  0  0  0  0
  -45.1293   59.3483   65.7530 C   0  0  0  0  0  0  0  0  0  0  0  0
  -43.7756   58.8486   66.2381 C   0  0  0  0  0  0  0  0  0  0  0  0
  -43.0369   59.9350   67.0036 C   0  0  0  0  0  0  0  0  0  0  0  0
  -41.5542   59.9483   66.6460 C   0  0  0  0  0  0  0  0  0  0  0  0
  -41.2503   61.1503   65.7731 C   0  0  0  0  0  0  0  0  0  0  0  0
  -41.8320   61.2901   64.6669 O   0  0  0  0  0  0  0  0  0  0  0  0
  -40.4128   62.0122   66.1458 O   0  0  0  0  0  0  0  0  0  0  0  0
  -39.9752   61.9152   66.9686 H   0  0  0  0  0  0  0  0  0  0  0  0
  -48.1605   60.9480   64.3849 C   0  0  0  0  0  0  0  0  0  0  0  0
  -49.3664   60.9948   63.5468 C   0  0  0  0  0  0  0  0  0  0  0  0
  -50.6775   60.4481   64.0660 C   0  0  0  0  0  0  0  0  0  0  0  0
  -51.2775   59.4677   63.0590 C   0  0  0  0  0  0  0  0  0  0  0  0
  -50.2446   58.5223   62.4515 C   0  0  0  0  0  0  0  0  0  0  0  0
  -50.8177   57.7529   61.2583 C   0  0  0  0  0  0  0  0  0  0  0  0
  -49.7784   57.0102   60.4100 C   0  0  0  0  0  0  0  0  0  0  0  0
  -48.4568   57.7829   60.3059 C   0  0  0  0  0  0  0  0  0  0  0  0
  -47.5100   57.1942   59.2568 C   0  0  0  0  0  0  0  0  0  0  0  0
  -47.2633   58.1288   58.0663 C   0  0  0  0  0  0  0  0  0  0  0  0
  8  9  2  0  0  0
  8  7  1  0  0  0
  8 10  1  0  0  0
  7  6  1  0  0  0
  6  5  1  0  0  0
  5  4  1  0  0  0
  4  3  1  0  0  0
  3  2  1  0  0  0
  2  1  1  0  0  0
  1 12  1  0  0  0
 12 13  1  0  0  0
 13 14  1  0  0  0
 14 15  1  0  0  0
 15 16  1  0  0  0
 16 17  1  0  0  0
 17 18  1  0  0  0
 18 19  1  0  0  0
 19 20  1  0  0  0
 20 21  1  0  0  0
 10 11  1  0  0  0
M  END
> <minimizedAffinity>
-6.91810

$$$$



 21 20  0  0  0  0  0  0  0  0999 V2000
  -50.6796   59.9205   65.4752 C   0  0  0  0  0  0  0  0  0  0  0  0
  -50.6312   60.5144   64.0767 C   0  0  0  0  0  0  0  0  0  0  0  0
  -51.5944   59.8163   63.1333 C   0  0  0  0  0  0  0  0  0  0  0  0
  -50.8894   58.7208   62.3390 C   0  0  0  0  0  0  0  0  0  0  0  0
  -49.4823   59.1661   61.9660 C   0  0  0  0  0  0  0  0  0  0  0  0
  -48.7571   58.0810   61.1857 C   0  0  0  0  0  0  0  0  0  0  0  0
  -48.3707   58.5699   59.7936 C   0  0  0  0  0  0  0  0  0  0  0  0
  -47.6997   57.4474   59.0263 C   0  0  0  0  0  0  0  0  0  0  0  0
  -46.9397   57.7103   58.0593 O   0  0  0  0  0  0  0  0  0  0  0  0
  -47.9011   56.2476   59.3473 O   0  0  0  0  0  0  0  0  0  0  0  0
  -48.4660   56.0436   60.0665 H   0  0  0  0  0  0  0  0  0  0  0  0
  -49.2656   59.5751   65.8715 C   0  0  0  0  0  0  0  0  0  0  0  0
  -48.7545   58.2153   65.6506 C   0  0  0  0  0  0  0  0  0  0  0  0
  -47.4104   58.0039   64.9903 C   0  0  0  0  0  0  0  0  0  0  0  0
  -46.6337   56.9036   65.7123 C   0  0  0  0  0  0  0  0  0  0  0  0
  -45.4126   57.4246   66.4655 C   0  0  0  0  0  0  0  0  0  0  0  0
  -44.1318   57.2642   65.6421 C   0  0  0  0  0  0  0  0  0  0  0  0
  -42.8401   57.6393   66.3785 C   0  0  0  0  0  0  0  0  0  0  0  0
  -41.9023   58.4862   65.5079 C   0  0  0  0  0  0  0  0  0  0  0  0
  -41.8672   59.9558   65.9352 C   0  0  0  0  0  0  0  0  0  0  0  0
  -42.4759   60.2019   67.3211 C   0  0  0  0  0  0  0  0  0  0  0  0
  8  9  2  0  0  0
  8  7  1  0  0  0
  8 10  1  0  0  0
  7  6  1  0  0  0
  6  5  1  0  0  0
  5  4  1  0  0  0
  4  3  1  0  0  0
  3  2  1  0  0  0
  2  1  1  0  0  0
  1 12  1  0  0  0
 12 13  1  0  0  0
 13 14  1  0  0  0
 14 15  1  0  0  0
 15 16  1  0  0  0
 16 17  1  0  0  0
 17 18  1  0  0  0
 18 19  1  0  0  0
 19 20  1  0  0  0
 20 21  1  0  0  0
 10 11  1  0  0  0
M  END
> <minimizedAffinity>
-6.83214

$$$$



 21 20  0  0  0  0  0  0  0  0999 V2000
  -46.2842   57.4260   65.3779 C   0  0  0  0  0  0  0  0  0  0  0  0
  -45.0837   57.6794   64.4805 C   0  0  0  0  0  0  0  0  0  0  0  0
  -43.8086   57.0996   65.0664 C   0  0  0  0  0  0  0  0  0  0  0  0
  -42.7581   58.1853   65.2800 C   0  0  0  0  0  0  0  0  0  0  0  0
  -42.5114   58.3912   66.7680 C   0  0  0  0  0  0  0  0  0  0  0  0
  -41.6189   59.5983   67.0097 C   0  0  0  0  0  0  0  0  0  0  0  0
  -42.0532   60.7834   66.1534 C   0  0  0  0  0  0  0  0  0  0  0  0
  -40.8334   61.4484   65.5459 C   0  0  0  0  0  0  0  0  0  0  0  0
  -40.8983   61.9575   64.3978 O   0  0  0  0  0  0  0  0  0  0  0  0
  -39.7488   61.4918   66.1823 O   0  0  0  0  0  0  0  0  0  0  0  0
  -39.6924   61.1148   67.0382 H   0  0  0  0  0  0  0  0  0  0  0  0
  -46.4183   58.6102   66.3028 C   0  0  0  0  0  0  0  0  0  0  0  0
  -46.1074   59.9604   65.8137 C   0  0  0  0  0  0  0  0  0  0  0  0
  -47.0773   60.6851   64.9073 C   0  0  0  0  0  0  0  0  0  0  0  0
  -48.5118   60.2624   65.2220 C   0  0  0  0  0  0  0  0  0  0  0  0
  -49.5550   61.0209   64.4058 C   0  0  0  0  0  0  0  0  0  0  0  0
  -50.8924   60.2765   64.3695 C   0  0  0  0  0  0  0  0  0  0  0  0
  -51.2832   59.7186   62.9956 C   0  0  0  0  0  0  0  0  0  0  0  0
  -50.5321   58.4228   62.6618 C   0  0  0  0  0  0  0  0  0  0  0  0
  -49.3123   58.6613   61.7681 C   0  0  0  0  0  0  0  0  0  0  0  0
  -49.4158   59.9373   60.9239 C   0  0  0  0  0  0  0  0  0  0  0  0
  8  9  2  0  0  0
  8  7  1  0  0  0
  8 10  1  0  0  0
  7  6  1  0  0  0
  6  5  1  0  0  0
  5  4  1  0  0  0
  4  3  1  0  0  0
  3  2  1  0  0  0
  2  1  1  0  0  0
  1 12  1  0  0  0
 12 13  1  0  0  0
 13 14  1  0  0  0
 14 15  1  0  0  0
 15 16  1  0  0  0
 16 17  1  0  0  0
 17 18  1  0  0  0
 18 19  1  0  0  0
 19 20  1  0  0  0
 20 21  1  0  0  0
 10 11  1  0  0  0
M  END
> <minimizedAffinity>
-6.75613

$$$$



 21 20  0  0  0  0  0  0  0  0999 V2000
  -48.8053   58.2583   63.7590 C   0  0  0  0  0  0  0  0  0  0  0  0
  -49.6439   59.3660   63.1420 C   0  0  0  0  0  0  0  0  0  0  0  0
  -49.3532   59.5361   61.6616 C   0  0  0  0  0  0  0  0  0  0  0  0
  -48.8250   58.2408   61.0524 C   0  0  0  0  0  0  0  0  0  0  0  0
  -48.2426   58.5097   59.6718 C   0  0  0  0  0  0  0  0  0  0  0  0
  -47.6819   57.2355   59.0601 C   0  0  0  0  0  0  0  0  0  0  0  0
  -47.2283   57.4689   57.6227 C   0  0  0  0  0  0  0  0  0  0  0  0
  -47.7901   56.3820   56.7272 C   0  0  0  0  0  0  0  0  0  0  0  0
  -47.7686   55.1817   57.1021 O   0  0  0  0  0  0  0  0  0  0  0  0
  -48.2764   56.6712   55.6033 O   0  0  0  0  0  0  0  0  0  0  0  0
  -48.2960   57.5631   55.3168 H   0  0  0  0  0  0  0  0  0  0  0  0
  -47.6894   58.9120   64.5356 C   0  0  0  0  0  0  0  0  0  0  0  0
  -47.4823   58.5691   65.9493 C   0  0  0  0  0  0  0  0  0  0  0  0
  -46.1570   58.0053   66.4109 C   0  0  0  0  0  0  0  0  0  0  0  0
  -45.5699   57.0886   65.3384 C   0  0  0  0  0  0  0  0  0  0  0  0
  -44.2351   57.5842   64.7886 C   0  0  0  0  0  0  0  0  0  0  0  0
  -43.6484   58.7015   65.6555 C   0  0  0  0  0  0  0  0  0  0  0  0
  -42.2715   58.3958   66.2573 C   0  0  0  0  0  0  0  0  0  0  0  0
  -41.8619   59.4253   67.3187 C   0  0  0  0  0  0  0  0  0  0  0  0
  -42.1381   60.8661   66.8810 C   0  0  0  0  0  0  0  0  0  0  0  0
  -41.0183   61.4672   66.0230 C   0  0  0  0  0  0  0  0  0  0  0  0
  8  9  2  0  0  0
  8  7  1  0  0  0
  8 10  1  0  0  0
  7  6  1  0  0  0
  6  5  1  0  0  0
  5  4  1  0  0  0
  4  3  1  0  0  0
  3  2  1  0  0  0
  2  1  1  0  0  0
  1 12  1  0  0  0
 12 13  1  0  0  0
 13 14  1  0  0  0
 14 15  1  0  0  0
 15 16  1  0  0  0
 16 17  1  0  0  0
 17 18  1  0  0  0
 18 19  1  0  0  0
 19 20  1  0  0  0
 20 21  1  0  0  0
 10 11  1  0  0  0
M  END
> <minimizedAffinity>
-6.71682

$$$$



 21 20  0  0  0  0  0  0  0  0999 V2000
  -46.4731   58.3044   64.9173 C   0  0  0  0  0  0  0  0  0  0  0  0
  -45.6570   57.2859   65.6968 C   0  0  0  0  0  0  0  0  0  0  0  0
  -44.1670   57.5591   65.5944 C   0  0  0  0  0  0  0  0  0  0  0  0
  -43.8862   58.7363   64.6653 C   0  0  0  0  0  0  0  0  0  0  0  0
  -42.4308   59.1658   64.7878 C   0  0  0  0  0  0  0  0  0  0  0  0
  -42.0243   59.3009   66.2468 C   0  0  0  0  0  0  0  0  0  0  0  0
  -41.9618   60.7659   66.6667 C   0  0  0  0  0  0  0  0  0  0  0  0
  -40.8131   61.4527   65.9541 C   0  0  0  0  0  0  0  0  0  0  0  0
  -39.6254   61.1400   66.2247 O   0  0  0  0  0  0  0  0  0  0  0  0
  -41.0387   62.3413   65.0924 O   0  0  0  0  0  0  0  0  0  0  0  0
  -41.9208   62.5798   64.8852 H   0  0  0  0  0  0  0  0  0  0  0  0
  -47.2398   59.1338   65.9174 C   0  0  0  0  0  0  0  0  0  0  0  0
  -48.6995   59.2556   65.8020 C   0  0  0  0  0  0  0  0  0  0  0  0
  -49.4172   58.7046   64.5900 C   0  0  0  0  0  0  0  0  0  0  0  0
  -50.6506   59.5505   64.2759 C   0  0  0  0  0  0  0  0  0  0  0  0
  -50.9734   59.6127   62.7854 C   0  0  0  0  0  0  0  0  0  0  0  0
  -49.9037   60.3854   62.0089 C   0  0  0  0  0  0  0  0  0  0  0  0
  -49.2925   59.6274   60.8243 C   0  0  0  0  0  0  0  0  0  0  0  0
  -49.8187   58.1895   60.7233 C   0  0  0  0  0  0  0  0  0  0  0  0
  -49.2943   57.4546   59.4870 C   0  0  0  0  0  0  0  0  0  0  0  0
  -47.8645   57.8538   59.1020 C   0  0  0  0  0  0  0  0  0  0  0  0
  8  9  2  0  0  0
  8  7  1  0  0  0
  8 10  1  0  0  0
  7  6  1  0  0  0
  6  5  1  0  0  0
  5  4  1  0  0  0
  4  3  1  0  0  0
  3  2  1  0  0  0
  2  1  1  0  0  0
  1 12  1  0  0  0
 12 13  1  0  0  0
 13 14  1  0  0  0
 14 15  1  0  0  0
 15 16  1  0  0  0
 16 17  1  0  0  0
 17 18  1  0  0  0
 18 19  1  0  0  0
 19 20  1  0  0  0
 20 21  1  0  0  0
 10 11  1  0  0  0
M  END
> <minimizedAffinity>
-6.52978

$$$$
