


 19 18  0  0  0  0  0  0  0  0999 V2000
  -47.3977   60.8656   65.8919 C   0  0  0  0  0  0  0  0  0  0  0  0
  -46.3786   59.8207   66.3250 C   0  0  0  0  0  0  0  0  0  0  0  0
  -45.0759   59.9222   65.5499 C   0  0  0  0  0  0  0  0  0  0  0  0
  -43.8938   59.8883   66.5047 C   0  0  0  0  0  0  0  0  0  0  0  0
  -42.6378   59.5480   65.7228 C   0  0  0  0  0  0  0  0  0  0  0  0
  -41.4032   60.1947   66.3305 C   0  0  0  0  0  0  0  0  0  0  0  0
  -41.0685   61.4455   65.5566 C   0  0  0  0  0  0  0  0  0  0  0  0
  -41.6822   61.7121   64.5049 O   0  0  0  0  0  0  0  0  0  0  0  0
  -40.1765   62.2286   65.9464 O   0  0  0  0  0  0  0  0  0  0  0  0
  -39.7040   62.0455   66.7346 H   0  0  0  0  0  0  0  0  0  0  0  0
  -48.7761   60.3170   66.2306 C   0  0  0  0  0  0  0  0  0  0  0  0
  -48.9532   58.9028   65.7322 C   0  0  0  0  0  0  0  0  0  0  0  0
  -49.6729   58.6596   64.4719 C   0  0  0  0  0  0  0  0  0  0  0  0
  -50.4074   59.8027   63.8175 C   0  0  0  0  0  0  0  0  0  0  0  0
  -50.9102   59.4007   62.4353 C   0  0  0  0  0  0  0  0  0  0  0  0
  -50.2750   58.0790   62.0041 C   0  0  0  0  0  0  0  0  0  0  0  0
  -50.9433   57.5121   60.7524 C   0  0  0  0  0  0  0  0  0  0  0  0
  -50.3476   58.1011   59.4711 C   0  0  0  0  0  0  0  0  0  0  0  0
  -48.8214   58.0786   59.4602 C   0  0  0  0  0  0  0  0  0  0  0  0
  7  8  2  0  0  0
  7  6  1  0  0  0
  7  9  1  0  0  0
  6  5  1  0  0  0
  5  4  1  0  0  0
  4  3  1  0  0  0
  3  2  1  0  0  0
  2  1  1  0  0  0
  1 11  1  0  0  0
 11 12  1  0  0  0
 12 13  2  0  0  0
 13 14  1  0  0  0
 14 15  1  0  0  0
 15 16  1  0  0  0
 16 17  1  0  0  0
 17 18  1  0  0  0
 18 19  1  0  0  0
  9 10  1  0  0  0
M  END
> <minimizedAffinity>
-6.98263

> <CNNscore>
0.8494456410

> <CNNaffinity>
6.2970185280

> <CNN_VS>
5.3489747047

> <CNNaffinity_variance>
0.5385410786

$$$$



 19 18  0  0  0  0  0  0  0  0999 V2000
  -44.8758   57.6628   64.9950 C   0  0  0  0  0  0  0  0  0  0  0  0
  -43.4293   58.1373   65.0133 C   0  0  0  0  0  0  0  0  0  0  0  0
  -42.7702   57.9426   66.3682 C   0  0  0  0  0  0  0  0  0  0  0  0
  -41.8516   59.1134   66.6775 C   0  0  0  0  0  0  0  0  0  0  0  0
  -41.3470   59.7025   65.3725 C   0  0  0  0  0  0  0  0  0  0  0  0
  -39.8386   59.8926   65.3861 C   0  0  0  0  0  0  0  0  0  0  0  0
  -39.5253   61.3420   65.6628 C   0  0  0  0  0  0  0  0  0  0  0  0
  -38.3434   61.7380   65.6552 O   0  0  0  0  0  0  0  0  0  0  0  0
  -40.4329   62.1651   65.9072 O   0  0  0  0  0  0  0  0  0  0  0  0
  -41.3275   61.8867   65.9175 H   0  0  0  0  0  0  0  0  0  0  0  0
  -45.6391   58.5073   66.0049 C   0  0  0  0  0  0  0  0  0  0  0  0
  -46.2851   59.7077   65.3556 C   0  0  0  0  0  0  0  0  0  0  0  0
  -47.7517   59.7847   65.2638 C   0  0  0  0  0  0  0  0  0  0  0  0
  -48.5710   58.5696   65.6196 C   0  0  0  0  0  0  0  0  0  0  0  0
  -49.7914   58.4568   64.7126 C   0  0  0  0  0  0  0  0  0  0  0  0
  -50.1031   59.8095   64.0728 C   0  0  0  0  0  0  0  0  0  0  0  0
  -50.6099   59.6541   62.6397 C   0  0  0  0  0  0  0  0  0  0  0  0
  -49.9284   58.4896   61.9166 C   0  0  0  0  0  0  0  0  0  0  0  0
  -50.8850   57.7023   61.0249 C   0  0  0  0  0  0  0  0  0  0  0  0
  7  8  2  0  0  0
  7  6  1  0  0  0
  7  9  1  0  0  0
  6  5  1  0  0  0
  5  4  1  0  0  0
  4  3  1  0  0  0
  3  2  1  0  0  0
  2  1  1  0  0  0
  1 11  1  0  0  0
 11 12  1  0  0  0
 12 13  2  0  0  0
 13 14  1  0  0  0
 14 15  1  0  0  0
 15 16  1  0  0  0
 16 17  1  0  0  0
 17 18  1  0  0  0
 18 19  1  0  0  0
  9 10  1  0  0  0
M  END
> <minimizedAffinity>
-6.56146

> <CNNscore>
0.8380038738

> <CNNaffinity>
6.3522462845

> <CNN_VS>
5.3232069016

> <CNNaffinity_variance>
0.4819215834

$$$$



 19 18  0  0  0  0  0  0  0  0999 V2000
  -48.4404   58.0752   65.1945 C   0  0  0  0  0  0  0  0  0  0  0  0
  -48.0910   59.2563   66.0893 C   0  0  0  0  0  0  0  0  0  0  0  0
  -46.9365   60.0789   65.5427 C   0  0  0  0  0  0  0  0  0  0  0  0
  -45.6395   59.6825   66.2286 C   0  0  0  0  0  0  0  0  0  0  0  0
  -44.5654   59.4823   65.1747 C   0  0  0  0  0  0  0  0  0  0  0  0
  -43.4069   60.4494   65.3599 C   0  0  0  0  0  0  0  0  0  0  0  0
  -42.6854   60.1170   66.6422 C   0  0  0  0  0  0  0  0  0  0  0  0
  -42.1624   58.9954   66.7918 O   0  0  0  0  0  0  0  0  0  0  0  0
  -42.6020   60.9473   67.5720 O   0  0  0  0  0  0  0  0  0  0  0  0
  -42.9887   61.7957   67.4786 H   0  0  0  0  0  0  0  0  0  0  0  0
  -48.7112   58.6294   63.8033 C   0  0  0  0  0  0  0  0  0  0  0  0
  -50.1123   59.1790   63.6831 C   0  0  0  0  0  0  0  0  0  0  0  0
  -50.7900   59.1665   62.3770 C   0  0  0  0  0  0  0  0  0  0  0  0
  -49.9962   58.8095   61.1454 C   0  0  0  0  0  0  0  0  0  0  0  0
  -50.4929   57.4994   60.5439 C   0  0  0  0  0  0  0  0  0  0  0  0
  -49.3181   56.6869   59.9999 C   0  0  0  0  0  0  0  0  0  0  0  0
  -48.1187   57.5754   59.6735 C   0  0  0  0  0  0  0  0  0  0  0  0
  -47.9037   57.7118   58.1640 C   0  0  0  0  0  0  0  0  0  0  0  0
  -46.7191   58.6074   57.8109 C   0  0  0  0  0  0  0  0  0  0  0  0
  7  8  2  0  0  0
  7  6  1  0  0  0
  7  9  1  0  0  0
  6  5  1  0  0  0
  5  4  1  0  0  0
  4  3  1  0  0  0
  3  2  1  0  0  0
  2  1  1  0  0  0
  1 11  1  0  0  0
 11 12  1  0  0  0
 12 13  2  0  0  0
 13 14  1  0  0  0
 14 15  1  0  0  0
 15 16  1  0  0  0
 16 17  1  0  0  0
 17 18  1  0  0  0
 18 19  1  0  0  0
  9 10  1  0  0  0
M  END
> <minimizedAffinity>
-7.09570

> <CNNscore>
0.7571986318

> <CNNaffinity>
6.4420804977

> <CNN_VS>
4.8779344559

> <CNNaffinity_variance>
0.5577888489

$$$$



 19 18  0  0  0  0  0  0  0  0999 V2000
  -50.2943   59.5502   62.1848 C   0  0  0  0  0  0  0  0  0  0  0  0
  -50.3937   58.0523   61.9314 C   0  0  0  0  0  0  0  0  0  0  0  0
  -50.4461   57.7149   60.4510 C   0  0  0  0  0  0  0  0  0  0  0  0
  -49.4340   58.5520   59.6862 C   0  0  0  0  0  0  0  0  0  0  0  0
  -48.1840   57.7229   59.4526 C   0  0  0  0  0  0  0  0  0  0  0  0
  -47.6090   57.9495   58.0635 C   0  0  0  0  0  0  0  0  0  0  0  0
  -47.9809   56.7860   57.1784 C   0  0  0  0  0  0  0  0  0  0  0  0
  -47.9320   55.6225   57.6231 O   0  0  0  0  0  0  0  0  0  0  0  0
  -48.3371   56.9617   55.9939 O   0  0  0  0  0  0  0  0  0  0  0  0
  -48.3802   57.8288   55.6413 H   0  0  0  0  0  0  0  0  0  0  0  0
  -49.4896   59.7379   63.4626 C   0  0  0  0  0  0  0  0  0  0  0  0
  -49.8246   58.6873   64.4940 C   0  0  0  0  0  0  0  0  0  0  0  0
  -48.7504   58.0989   65.3097 C   0  0  0  0  0  0  0  0  0  0  0  0
  -47.3156   58.3937   64.9509 C   0  0  0  0  0  0  0  0  0  0  0  0
  -46.3738   57.4149   65.6438 C   0  0  0  0  0  0  0  0  0  0  0  0
  -45.0447   58.0971   65.9672 C   0  0  0  0  0  0  0  0  0  0  0  0
  -43.9325   57.6459   65.0216 C   0  0  0  0  0  0  0  0  0  0  0  0
  -42.5574   57.6983   65.6922 C   0  0  0  0  0  0  0  0  0  0  0  0
  -42.3105   59.0056   66.4405 C   0  0  0  0  0  0  0  0  0  0  0  0
  7  8  2  0  0  0
  7  6  1  0  0  0
  7  9  1  0  0  0
  6  5  1  0  0  0
  5  4  1  0  0  0
  4  3  1  0  0  0
  3  2  1  0  0  0
  2  1  1  0  0  0
  1 11  1  0  0  0
 11 12  1  0  0  0
 12 13  2  0  0  0
 13 14  1  0  0  0
 14 15  1  0  0  0
 15 16  1  0  0  0
 16 17  1  0  0  0
 17 18  1  0  0  0
 18 19  1  0  0  0
  9 10  1  0  0  0
M  END
> <minimizedAffinity>
-7.17252

> <CNNscore>
0.7569862008

> <CNNaffinity>
6.6516647339

> <CNN_VS>
5.0352182388

> <CNNaffinity_variance>
0.6451346874

$$$$



 19 18  0  0  0  0  0  0  0  0999 V2000
  -50.8058   59.6975   62.6120 C   0  0  0  0  0  0  0  0  0  0  0  0
  -50.2394   58.3206   62.2938 C   0  0  0  0  0  0  0  0  0  0  0  0
  -50.8584   57.7106   61.0477 C   0  0  0  0  0  0  0  0  0  0  0  0
  -50.1527   58.2276   59.8048 C   0  0  0  0  0  0  0  0  0  0  0  0
  -48.9146   57.3856   59.5544 C   0  0  0  0  0  0  0  0  0  0  0  0
  -48.1645   57.8419   58.3131 C   0  0  0  0  0  0  0  0  0  0  0  0
  -48.2102   56.7463   57.2771 C   0  0  0  0  0  0  0  0  0  0  0  0
  -47.9383   55.5727   57.5969 O   0  0  0  0  0  0  0  0  0  0  0  0
  -48.5135   56.9904   56.0900 O   0  0  0  0  0  0  0  0  0  0  0  0
  -48.7211   57.8664   55.8301 H   0  0  0  0  0  0  0  0  0  0  0  0
  -50.6125   59.9298   64.1034 C   0  0  0  0  0  0  0  0  0  0  0  0
  -49.8127   58.8204   64.7432 C   0  0  0  0  0  0  0  0  0  0  0  0
  -48.8122   59.1442   65.7726 C   0  0  0  0  0  0  0  0  0  0  0  0
  -48.4500   60.5886   66.0107 C   0  0  0  0  0  0  0  0  0  0  0  0
  -47.1652   60.9516   65.2741 C   0  0  0  0  0  0  0  0  0  0  0  0
  -46.1597   59.8039   65.3653 C   0  0  0  0  0  0  0  0  0  0  0  0
  -44.7189   60.3123   65.3579 C   0  0  0  0  0  0  0  0  0  0  0  0
  -43.8818   59.6708   66.4676 C   0  0  0  0  0  0  0  0  0  0  0  0
  -42.7605   60.5785   66.9664 C   0  0  0  0  0  0  0  0  0  0  0  0
  7  8  2  0  0  0
  7  6  1  0  0  0
  7  9  1  0  0  0
  6  5  1  0  0  0
  5  4  1  0  0  0
  4  3  1  0  0  0
  3  2  1  0  0  0
  2  1  1  0  0  0
  1 11  1  0  0  0
 11 12  1  0  0  0
 12 13  2  0  0  0
 13 14  1  0  0  0
 14 15  1  0  0  0
 15 16  1  0  0  0
 16 17  1  0  0  0
 17 18  1  0  0  0
 18 19  1  0  0  0
  9 10  1  0  0  0
M  END
> <minimizedAffinity>
-7.41288

> <CNNscore>
0.7434499264

> <CNNaffinity>
6.4499497414

> <CNN_VS>
4.7952146530

> <CNNaffinity_variance>
0.5580191612

$$$$



 19 18  0  0  0  0  0  0  0  0999 V2000
  -45.1506   59.4884   66.3359 C   0  0  0  0  0  0  0  0  0  0  0  0
  -43.9841   60.2034   65.6682 C   0  0  0  0  0  0  0  0  0  0  0  0
  -42.7897   60.3585   66.5943 C   0  0  0  0  0  0  0  0  0  0  0  0
  -42.0759   59.0265   66.7569 C   0  0  0  0  0  0  0  0  0  0  0  0
  -41.5715   58.5684   65.4004 C   0  0  0  0  0  0  0  0  0  0  0  0
  -40.1789   59.1036   65.1069 C   0  0  0  0  0  0  0  0  0  0  0  0
  -40.1871   59.7943   63.7658 C   0  0  0  0  0  0  0  0  0  0  0  0
  -41.0745   60.6277   63.4980 O   0  0  0  0  0  0  0  0  0  0  0  0
  -39.3177   59.5448   62.9040 O   0  0  0  0  0  0  0  0  0  0  0  0
  -38.6424   58.9214   63.0865 H   0  0  0  0  0  0  0  0  0  0  0  0
  -45.9498   58.8065   65.2350 C   0  0  0  0  0  0  0  0  0  0  0  0
  -47.0338   57.9192   65.7985 C   0  0  0  0  0  0  0  0  0  0  0  0
  -48.3298   57.8246   65.1079 C   0  0  0  0  0  0  0  0  0  0  0  0
  -48.6274   58.7791   63.9789 C   0  0  0  0  0  0  0  0  0  0  0  0
  -50.0764   58.6424   63.5242 C   0  0  0  0  0  0  0  0  0  0  0  0
  -50.2199   59.0900   62.0697 C   0  0  0  0  0  0  0  0  0  0  0  0
  -50.7328   57.9601   61.1781 C   0  0  0  0  0  0  0  0  0  0  0  0
  -49.5894   57.2261   60.4728 C   0  0  0  0  0  0  0  0  0  0  0  0
  -48.8703   58.0951   59.4443 C   0  0  0  0  0  0  0  0  0  0  0  0
  7  8  2  0  0  0
  7  6  1  0  0  0
  7  9  1  0  0  0
  6  5  1  0  0  0
  5  4  1  0  0  0
  4  3  1  0  0  0
  3  2  1  0  0  0
  2  1  1  0  0  0
  1 11  1  0  0  0
 11 12  1  0  0  0
 12 13  2  0  0  0
 13 14  1  0  0  0
 14 15  1  0  0  0
 15 16  1  0  0  0
 16 17  1  0  0  0
 17 18  1  0  0  0
 18 19  1  0  0  0
  9 10  1  0  0  0
M  END
> <minimizedAffinity>
-6.37831

> <CNNscore>
0.7293421030

> <CNNaffinity>
6.2805418968

> <CNN_VS>
4.5806636810

> <CNNaffinity_variance>
0.3722822070

$$$$



 19 18  0  0  0  0  0  0  0  0999 V2000
  -50.0536   59.9396   65.7354 C   0  0  0  0  0  0  0  0  0  0  0  0
  -48.6789   60.4676   66.1219 C   0  0  0  0  0  0  0  0  0  0  0  0
  -47.5796   59.9515   65.2090 C   0  0  0  0  0  0  0  0  0  0  0  0
  -46.2804   60.6912   65.4827 C   0  0  0  0  0  0  0  0  0  0  0  0
  -45.1581   59.6796   65.6291 C   0  0  0  0  0  0  0  0  0  0  0  0
  -43.7945   60.3148   65.4086 C   0  0  0  0  0  0  0  0  0  0  0  0
  -42.9179   60.0312   66.6030 C   0  0  0  0  0  0  0  0  0  0  0  0
  -42.3132   58.9447   66.6898 O   0  0  0  0  0  0  0  0  0  0  0  0
  -42.7850   60.8675   67.5216 O   0  0  0  0  0  0  0  0  0  0  0  0
  -43.2315   61.6900   67.4745 H   0  0  0  0  0  0  0  0  0  0  0  0
  -49.8853   59.1474   64.4471 C   0  0  0  0  0  0  0  0  0  0  0  0
  -50.6817   59.7475   63.3134 C   0  0  0  0  0  0  0  0  0  0  0  0
  -50.5601   59.1838   61.9596 C   0  0  0  0  0  0  0  0  0  0  0  0
  -49.4825   58.1646   61.6866 C   0  0  0  0  0  0  0  0  0  0  0  0
  -49.9320   57.1777   60.6147 C   0  0  0  0  0  0  0  0  0  0  0  0
  -50.0634   57.8840   59.2656 C   0  0  0  0  0  0  0  0  0  0  0  0
  -48.9385   57.4907   58.3092 C   0  0  0  0  0  0  0  0  0  0  0  0
  -47.7444   58.4432   58.4105 C   0  0  0  0  0  0  0  0  0  0  0  0
  -46.4860   57.7640   58.9446 C   0  0  0  0  0  0  0  0  0  0  0  0
  7  8  2  0  0  0
  7  6  1  0  0  0
  7  9  1  0  0  0
  6  5  1  0  0  0
  5  4  1  0  0  0
  4  3  1  0  0  0
  3  2  1  0  0  0
  2  1  1  0  0  0
  1 11  1  0  0  0
 11 12  1  0  0  0
 12 13  2  0  0  0
 13 14  1  0  0  0
 14 15  1  0  0  0
 15 16  1  0  0  0
 16 17  1  0  0  0
 17 18  1  0  0  0
 18 19  1  0  0  0
  9 10  1  0  0  0
M  END
> <minimizedAffinity>
-7.14133

> <CNNscore>
0.7010009885

> <CNNaffinity>
6.3352155685

> <CNN_VS>
4.4409923553

> <CNNaffinity_variance>
0.3897232115

$$$$



 19 18  0  0  0  0  0  0  0  0999 V2000
  -48.0530   61.0456   65.7299 C   0  0  0  0  0  0  0  0  0  0  0  0
  -46.6257   60.8004   65.2606 C   0  0  0  0  0  0  0  0  0  0  0  0
  -46.1321   59.4050   65.6035 C   0  0  0  0  0  0  0  0  0  0  0  0
  -45.0087   59.4824   66.6243 C   0  0  0  0  0  0  0  0  0  0  0  0
  -43.8203   60.1889   65.9974 C   0  0  0  0  0  0  0  0  0  0  0  0
  -42.7811   60.5749   67.0379 C   0  0  0  0  0  0  0  0  0  0  0  0
  -41.4555   60.7986   66.3535 C   0  0  0  0  0  0  0  0  0  0  0  0
  -40.6897   59.8372   66.1462 O   0  0  0  0  0  0  0  0  0  0  0  0
  -41.0997   61.9394   65.9888 O   0  0  0  0  0  0  0  0  0  0  0  0
  -41.6616   62.6747   66.1358 H   0  0  0  0  0  0  0  0  0  0  0  0
  -48.9212   61.1663   64.4859 C   0  0  0  0  0  0  0  0  0  0  0  0
  -50.3628   60.8229   64.7746 C   0  0  0  0  0  0  0  0  0  0  0  0
  -51.1354   60.0416   63.7956 C   0  0  0  0  0  0  0  0  0  0  0  0
  -50.5431   59.7883   62.4321 C   0  0  0  0  0  0  0  0  0  0  0  0
  -50.2131   58.3105   62.2529 C   0  0  0  0  0  0  0  0  0  0  0  0
  -50.8453   57.7784   60.9670 C   0  0  0  0  0  0  0  0  0  0  0  0
  -49.8019   57.1617   60.0367 C   0  0  0  0  0  0  0  0  0  0  0  0
  -48.8046   58.2050   59.5266 C   0  0  0  0  0  0  0  0  0  0  0  0
  -47.4021   57.6375   59.3242 C   0  0  0  0  0  0  0  0  0  0  0  0
  7  8  2  0  0  0
  7  6  1  0  0  0
  7  9  1  0  0  0
  6  5  1  0  0  0
  5  4  1  0  0  0
  4  3  1  0  0  0
  3  2  1  0  0  0
  2  1  1  0  0  0
  1 11  1  0  0  0
 11 12  1  0  0  0
 12 13  2  0  0  0
 13 14  1  0  0  0
 14 15  1  0  0  0
 15 16  1  0  0  0
 16 17  1  0  0  0
 17 18  1  0  0  0
 18 19  1  0  0  0
  9 10  1  0  0  0
M  END
> <minimizedAffinity>
-7.05068

> <CNNscore>
0.6962422729

> <CNNaffinity>
6.0006804466

> <CNN_VS>
4.1779274940

> <CNNaffinity_variance>
0.3063075542

$$$$



 19 18  0  0  0  0  0  0  0  0999 V2000
  -48.7682   59.8231   65.2762 C   0  0  0  0  0  0  0  0  0  0  0  0
  -47.6049   58.9557   64.8159 C   0  0  0  0  0  0  0  0  0  0  0  0
  -47.6247   57.5734   65.4461 C   0  0  0  0  0  0  0  0  0  0  0  0
  -46.2506   57.2284   65.9966 C   0  0  0  0  0  0  0  0  0  0  0  0
  -45.1923   57.7251   65.0281 C   0  0  0  0  0  0  0  0  0  0  0  0
  -43.8326   57.8528   65.6962 C   0  0  0  0  0  0  0  0  0  0  0  0
  -43.6047   59.2932   66.0823 C   0  0  0  0  0  0  0  0  0  0  0  0
  -42.6374   59.6002   66.8061 O   0  0  0  0  0  0  0  0  0  0  0  0
  -44.3743   60.1971   65.6931 O   0  0  0  0  0  0  0  0  0  0  0  0
  -45.1070   59.9863   65.1484 H   0  0  0  0  0  0  0  0  0  0  0  0
  -50.0481   59.1390   64.8183 C   0  0  0  0  0  0  0  0  0  0  0  0
  -50.7327   59.9126   63.7171 C   0  0  0  0  0  0  0  0  0  0  0  0
  -50.8285   59.3304   62.3691 C   0  0  0  0  0  0  0  0  0  0  0  0
  -50.0526   58.0751   62.0585 C   0  0  0  0  0  0  0  0  0  0  0  0
  -50.6107   57.3888   60.8166 C   0  0  0  0  0  0  0  0  0  0  0  0
  -50.3063   58.2195   59.5701 C   0  0  0  0  0  0  0  0  0  0  0  0
  -49.1869   57.5984   58.7360 C   0  0  0  0  0  0  0  0  0  0  0  0
  -47.8157   58.1700   59.1054 C   0  0  0  0  0  0  0  0  0  0  0  0
  -46.9072   58.3650   57.8943 C   0  0  0  0  0  0  0  0  0  0  0  0
  7  8  2  0  0  0
  7  6  1  0  0  0
  7  9  1  0  0  0
  6  5  1  0  0  0
  5  4  1  0  0  0
  4  3  1  0  0  0
  3  2  1  0  0  0
  2  1  1  0  0  0
  1 11  1  0  0  0
 11 12  1  0  0  0
 12 13  2  0  0  0
 13 14  1  0  0  0
 14 15  1  0  0  0
 15 16  1  0  0  0
 16 17  1  0  0  0
 17 18  1  0  0  0
 18 19  1  0  0  0
  9 10  1  0  0  0
M  END
> <minimizedAffinity>
-6.95937

> <CNNscore>
0.6926972270

> <CNNaffinity>
6.3982138634

> <CNN_VS>
4.4320249557

> <CNNaffinity_variance>
0.2728104591

$$$$
