


 25 25  0  0  0  0  0  0  0  0999 V2000
  -44.8405   59.6163   65.2612 C   0  0  0  0  0  0  0  0  0  0  0  0
  -46.0671   58.9316   65.8822 C   0  0  0  0  0  0  0  0  0  0  0  0
  -47.2349   58.9472   64.9055 C   0  0  0  0  0  0  0  0  0  0  0  0
  -48.1428   57.7479   65.1805 C   0  0  0  0  0  0  0  0  0  0  0  0
  -49.5501   58.0199   64.6494 C   0  0  0  0  0  0  0  0  0  0  0  0
  -50.9644   60.2563   64.3772 C   0  0  0  0  0  0  0  0  0  0  0  0
  -50.0031   59.3742   65.1976 C   0  0  0  0  0  0  0  0  0  0  0  0
  -51.4010   59.8820   62.9524 C   0  0  0  0  0  0  0  0  0  0  0  0
  -50.1928   60.1114   62.0327 C   0  0  0  0  0  0  0  0  0  0  0  0
  -49.7237   59.0439   61.0154 C   0  0  0  0  0  0  0  0  0  0  0  0
  -50.4656   57.7040   60.8434 C   0  0  0  0  0  0  0  0  0  0  0  0
  -48.9930   56.9230   58.9329 C   0  0  0  0  0  0  0  0  0  0  0  0
  -49.4369   56.6658   60.3750 C   0  0  0  0  0  0  0  0  0  0  0  0
  -43.4964   59.1342   65.8661 C   0  0  0  0  0  0  0  0  0  0  0  0
  -42.5302   60.2944   66.2035 C   0  0  0  0  0  0  0  0  0  0  0  0
  -39.5698   58.6820   64.6571 C   0  0  0  0  0  0  0  0  0  0  0  0
  -38.6600   59.7451   64.5826 C   0  0  0  0  0  0  0  0  0  0  0  0
  -40.8454   58.8792   65.1992 C   0  0  0  0  0  0  0  0  0  0  0  0
  -39.0520   60.9977   65.0543 C   0  0  0  0  0  0  0  0  0  0  0  0
  -40.3264   61.1890   65.5857 C   0  0  0  0  0  0  0  0  0  0  0  0
  -41.2550   60.1418   65.6425 C   0  0  0  0  0  0  0  0  0  0  0  0
  -38.2309   62.0758   65.0204 O   0  0  0  0  0  0  0  0  0  0  0  0
  -40.6686   62.4336   66.0277 O   0  0  0  0  0  0  0  0  0  0  0  0
  -37.3650   61.9944   64.6718 H   0  0  0  0  0  0  0  0  0  0  0  0
  -40.0456   63.1324   65.9886 H   0  0  0  0  0  0  0  0  0  0  0  0
 12 13  1  0  0  0
  9 10  2  0  0  0
  9  8  1  0  0  0
  6  7  2  0  0  0
  6  8  1  0  0  0
 10 11  1  0  0  0
  7  5  1  0  0  0
 16 17  2  0  0  0
 16 18  1  0  0  0
 17 19  1  0  0  0
 18 21  2  0  0  0
 13 11  1  0  0  0
  5  4  1  0  0  0
  4  3  1  0  0  0
  3  2  1  0  0  0
  2  1  1  0  0  0
  1 14  1  0  0  0
 14 15  1  0  0  0
 15 21  1  0  0  0
 19 20  2  0  0  0
 19 22  1  0  0  0
 20 21  1  0  0  0
 20 23  1  0  0  0
 22 24  1  0  0  0
 23 25  1  0  0  0
M  END
> <minimizedAffinity>
-8.97370

> <CNNscore>
0.8522451520

> <CNNaffinity>
6.7103166580

> <CNN_VS>
5.7188348770

> <CNNaffinity_variance>
0.3447209001

$$$$



 25 25  0  0  0  0  0  0  0  0999 V2000
  -42.7207   59.4555   65.1114 C   0  0  0  0  0  0  0  0  0  0  0  0
  -43.9856   58.8367   65.7245 C   0  0  0  0  0  0  0  0  0  0  0  0
  -45.2194   59.6220   65.3011 C   0  0  0  0  0  0  0  0  0  0  0  0
  -46.4737   58.9075   65.8054 C   0  0  0  0  0  0  0  0  0  0  0  0
  -47.1967   58.2285   64.6423 C   0  0  0  0  0  0  0  0  0  0  0  0
  -49.7538   58.0946   63.9217 C   0  0  0  0  0  0  0  0  0  0  0  0
  -48.6733   58.1001   65.0207 C   0  0  0  0  0  0  0  0  0  0  0  0
  -49.4156   58.3381   62.4429 C   0  0  0  0  0  0  0  0  0  0  0  0
  -50.6012   57.8208   61.6152 C   0  0  0  0  0  0  0  0  0  0  0  0
  -50.4253   57.3028   60.1676 C   0  0  0  0  0  0  0  0  0  0  0  0
  -49.0432   57.2439   59.4880 C   0  0  0  0  0  0  0  0  0  0  0  0
  -47.3272   55.5612   58.6805 C   0  0  0  0  0  0  0  0  0  0  0  0
  -48.5541   55.7912   59.5662 C   0  0  0  0  0  0  0  0  0  0  0  0
  -41.4339   58.6424   65.4077 C   0  0  0  0  0  0  0  0  0  0  0  0
  -40.1382   59.4704   65.2372 C   0  0  0  0  0  0  0  0  0  0  0  0
  -38.0207   57.4683   62.9430 C   0  0  0  0  0  0  0  0  0  0  0  0
  -37.7962   58.3654   61.8903 C   0  0  0  0  0  0  0  0  0  0  0  0
  -38.7951   57.8503   64.0450 C   0  0  0  0  0  0  0  0  0  0  0  0
  -38.3609   59.6386   61.9621 C   0  0  0  0  0  0  0  0  0  0  0  0
  -39.1374   60.0098   63.0586 C   0  0  0  0  0  0  0  0  0  0  0  0
  -39.3916   59.1147   64.1057 C   0  0  0  0  0  0  0  0  0  0  0  0
  -38.1892   60.5650   60.9874 O   0  0  0  0  0  0  0  0  0  0  0  0
  -39.6761   61.2632   63.0819 O   0  0  0  0  0  0  0  0  0  0  0  0
  -37.6749   60.3599   60.2315 H   0  0  0  0  0  0  0  0  0  0  0  0
  -39.5045   61.8600   62.3802 H   0  0  0  0  0  0  0  0  0  0  0  0
 12 13  1  0  0  0
  9 10  2  0  0  0
  9  8  1  0  0  0
  6  7  2  0  0  0
  6  8  1  0  0  0
 10 11  1  0  0  0
  7  5  1  0  0  0
 16 17  2  0  0  0
 16 18  1  0  0  0
 17 19  1  0  0  0
 18 21  2  0  0  0
 13 11  1  0  0  0
  5  4  1  0  0  0
  4  3  1  0  0  0
  3  2  1  0  0  0
  2  1  1  0  0  0
  1 14  1  0  0  0
 14 15  1  0  0  0
 15 21  1  0  0  0
 19 20  2  0  0  0
 19 22  1  0  0  0
 20 21  1  0  0  0
 20 23  1  0  0  0
 22 24  1  0  0  0
 23 25  1  0  0  0
M  END
> <minimizedAffinity>
-8.95939

> <CNNscore>
0.8304197192

> <CNNaffinity>
6.9174361229

> <CNN_VS>
5.7443752289

> <CNNaffinity_variance>
0.6714428663

$$$$



 25 25  0  0  0  0  0  0  0  0999 V2000
  -41.5164   60.8023   64.9637 C   0  0  0  0  0  0  0  0  0  0  0  0
  -41.4492   59.6518   65.9791 C   0  0  0  0  0  0  0  0  0  0  0  0
  -42.3189   58.4889   65.5217 C   0  0  0  0  0  0  0  0  0  0  0  0
  -43.6936   59.0151   65.1077 C   0  0  0  0  0  0  0  0  0  0  0  0
  -44.5280   57.8878   64.4998 C   0  0  0  0  0  0  0  0  0  0  0  0
  -46.4336   57.1159   66.1877 C   0  0  0  0  0  0  0  0  0  0  0  0
  -44.9980   56.9856   65.6422 C   0  0  0  0  0  0  0  0  0  0  0  0
  -47.3933   58.2150   65.7064 C   0  0  0  0  0  0  0  0  0  0  0  0
  -48.4795   57.5315   64.8631 C   0  0  0  0  0  0  0  0  0  0  0  0
  -49.8717   58.1715   64.6462 C   0  0  0  0  0  0  0  0  0  0  0  0
  -50.2334   59.5489   65.2357 C   0  0  0  0  0  0  0  0  0  0  0  0
  -51.0759   59.5529   62.8444 C   0  0  0  0  0  0  0  0  0  0  0  0
  -51.0621   60.2964   64.1822 C   0  0  0  0  0  0  0  0  0  0  0  0
  -40.8164   60.4758   63.6189 C   0  0  0  0  0  0  0  0  0  0  0  0
  -39.2727   60.4770   63.7205 C   0  0  0  0  0  0  0  0  0  0  0  0
  -37.8013   57.1428   63.0321 C   0  0  0  0  0  0  0  0  0  0  0  0
  -37.3614   57.2819   61.7090 C   0  0  0  0  0  0  0  0  0  0  0  0
  -38.4289   58.2105   63.6848 C   0  0  0  0  0  0  0  0  0  0  0  0
  -37.5647   58.4990   61.0590 C   0  0  0  0  0  0  0  0  0  0  0  0
  -38.1973   59.5554   61.7122 C   0  0  0  0  0  0  0  0  0  0  0  0
  -38.6653   59.4222   63.0258 C   0  0  0  0  0  0  0  0  0  0  0  0
  -37.1668   58.7149   59.7812 O   0  0  0  0  0  0  0  0  0  0  0  0
  -38.3815   60.7250   61.0340 O   0  0  0  0  0  0  0  0  0  0  0  0
  -36.7373   58.0333   59.3028 H   0  0  0  0  0  0  0  0  0  0  0  0
  -38.0675   60.8115   60.1555 H   0  0  0  0  0  0  0  0  0  0  0  0
 12 13  1  0  0  0
  9 10  2  0  0  0
  9  8  1  0  0  0
  6  7  2  0  0  0
  6  8  1  0  0  0
 10 11  1  0  0  0
  7  5  1  0  0  0
 16 17  2  0  0  0
 16 18  1  0  0  0
 17 19  1  0  0  0
 18 21  2  0  0  0
 13 11  1  0  0  0
  5  4  1  0  0  0
  4  3  1  0  0  0
  3  2  1  0  0  0
  2  1  1  0  0  0
  1 14  1  0  0  0
 14 15  1  0  0  0
 15 21  1  0  0  0
 19 20  2  0  0  0
 19 22  1  0  0  0
 20 21  1  0  0  0
 20 23  1  0  0  0
 22 24  1  0  0  0
 23 25  1  0  0  0
M  END
> <minimizedAffinity>
-9.05241

> <CNNscore>
0.6890230179

> <CNNaffinity>
6.6020650864

> <CNN_VS>
4.5489749908

> <CNNaffinity_variance>
0.3500640988

$$$$



 25 25  0  0  0  0  0  0  0  0999 V2000
  -43.6152   57.9146   65.4326 C   0  0  0  0  0  0  0  0  0  0  0  0
  -45.1349   57.7971   65.6210 C   0  0  0  0  0  0  0  0  0  0  0  0
  -45.7508   59.1727   65.8373 C   0  0  0  0  0  0  0  0  0  0  0  0
  -47.2296   59.0166   66.1931 C   0  0  0  0  0  0  0  0  0  0  0  0
  -47.9424   60.3645   66.0855 C   0  0  0  0  0  0  0  0  0  0  0  0
  -48.7764   60.6737   63.5785 C   0  0  0  0  0  0  0  0  0  0  0  0
  -47.7144   60.9025   64.6718 C   0  0  0  0  0  0  0  0  0  0  0  0
  -50.0231   59.8087   63.8195 C   0  0  0  0  0  0  0  0  0  0  0  0
  -49.6263   58.3523   63.5367 C   0  0  0  0  0  0  0  0  0  0  0  0
  -49.5726   57.7826   62.0989 C   0  0  0  0  0  0  0  0  0  0  0  0
  -49.8799   58.6561   60.8668 C   0  0  0  0  0  0  0  0  0  0  0  0
  -49.5170   56.3039   59.9928 C   0  0  0  0  0  0  0  0  0  0  0  0
  -49.9905   57.7199   59.6557 C   0  0  0  0  0  0  0  0  0  0  0  0
  -43.0424   59.2783   65.8985 C   0  0  0  0  0  0  0  0  0  0  0  0
  -41.4978   59.3418   65.8388 C   0  0  0  0  0  0  0  0  0  0  0  0
  -41.3179   61.3851   62.7488 C   0  0  0  0  0  0  0  0  0  0  0  0
  -40.1132   60.9525   62.1787 C   0  0  0  0  0  0  0  0  0  0  0  0
  -41.7640   60.8399   63.9586 C   0  0  0  0  0  0  0  0  0  0  0  0
  -39.3706   59.9751   62.8409 C   0  0  0  0  0  0  0  0  0  0  0  0
  -39.8167   59.4422   64.0492 C   0  0  0  0  0  0  0  0  0  0  0  0
  -41.0057   59.8837   64.6436 C   0  0  0  0  0  0  0  0  0  0  0  0
  -38.1971   59.5015   62.3548 O   0  0  0  0  0  0  0  0  0  0  0  0
  -39.0532   58.4937   64.6650 O   0  0  0  0  0  0  0  0  0  0  0  0
  -37.8582   59.8306   61.5457 H   0  0  0  0  0  0  0  0  0  0  0  0
  -38.2583   58.2001   64.2652 H   0  0  0  0  0  0  0  0  0  0  0  0
 12 13  1  0  0  0
  9 10  2  0  0  0
  9  8  1  0  0  0
  6  7  2  0  0  0
  6  8  1  0  0  0
 10 11  1  0  0  0
  7  5  1  0  0  0
 16 17  2  0  0  0
 16 18  1  0  0  0
 17 19  1  0  0  0
 18 21  2  0  0  0
 13 11  1  0  0  0
  5  4  1  0  0  0
  4  3  1  0  0  0
  3  2  1  0  0  0
  2  1  1  0  0  0
  1 14  1  0  0  0
 14 15  1  0  0  0
 15 21  1  0  0  0
 19 20  2  0  0  0
 19 22  1  0  0  0
 20 21  1  0  0  0
 20 23  1  0  0  0
 22 24  1  0  0  0
 23 25  1  0  0  0
M  END
> <minimizedAffinity>
-8.12583

> <CNNscore>
0.6708315015

> <CNNaffinity>
6.6406655312

> <CNN_VS>
4.4547677040

> <CNNaffinity_variance>
0.3168696761

$$$$



 25 25  0  0  0  0  0  0  0  0999 V2000
  -42.3392   58.3448   66.0394 C   0  0  0  0  0  0  0  0  0  0  0  0
  -43.4645   57.3743   65.6506 C   0  0  0  0  0  0  0  0  0  0  0  0
  -44.4622   58.0609   64.7280 C   0  0  0  0  0  0  0  0  0  0  0  0
  -45.8844   57.7227   65.1765 C   0  0  0  0  0  0  0  0  0  0  0  0
  -46.4231   58.8214   66.0926 C   0  0  0  0  0  0  0  0  0  0  0  0
  -48.1548   60.2711   64.6870 C   0  0  0  0  0  0  0  0  0  0  0  0
  -46.7288   60.0444   65.2262 C   0  0  0  0  0  0  0  0  0  0  0  0
  -49.2762   59.2397   64.8854 C   0  0  0  0  0  0  0  0  0  0  0  0
  -50.5994   59.9348   64.5327 C   0  0  0  0  0  0  0  0  0  0  0  0
  -51.1297   59.9974   63.0802 C   0  0  0  0  0  0  0  0  0  0  0  0
  -50.3763   59.3339   61.9108 C   0  0  0  0  0  0  0  0  0  0  0  0
  -50.7934   57.2977   60.4588 C   0  0  0  0  0  0  0  0  0  0  0  0
  -50.7802   57.8534   61.8849 C   0  0  0  0  0  0  0  0  0  0  0  0
  -42.8522   59.7562   66.4261 C   0  0  0  0  0  0  0  0  0  0  0  0
  -41.7509   60.8411   66.3670 C   0  0  0  0  0  0  0  0  0  0  0  0
  -41.4167   60.9530   62.6750 C   0  0  0  0  0  0  0  0  0  0  0  0
  -40.0403   61.1559   62.5093 C   0  0  0  0  0  0  0  0  0  0  0  0
  -41.9669   60.8476   63.9580 C   0  0  0  0  0  0  0  0  0  0  0  0
  -39.2353   61.2537   63.6441 C   0  0  0  0  0  0  0  0  0  0  0  0
  -39.7907   61.1557   64.9187 C   0  0  0  0  0  0  0  0  0  0  0  0
  -41.1684   60.9789   65.0998 C   0  0  0  0  0  0  0  0  0  0  0  0
  -37.8956   61.4470   63.5693 O   0  0  0  0  0  0  0  0  0  0  0  0
  -38.9655   61.2651   65.9999 O   0  0  0  0  0  0  0  0  0  0  0  0
  -37.4786   61.5189   62.7333 H   0  0  0  0  0  0  0  0  0  0  0  0
  -38.0443   61.3833   65.8760 H   0  0  0  0  0  0  0  0  0  0  0  0
 12 13  1  0  0  0
  9 10  2  0  0  0
  9  8  1  0  0  0
  6  7  2  0  0  0
  6  8  1  0  0  0
 10 11  1  0  0  0
  7  5  1  0  0  0
 16 17  2  0  0  0
 16 18  1  0  0  0
 17 19  1  0  0  0
 18 21  2  0  0  0
 13 11  1  0  0  0
  5  4  1  0  0  0
  4  3  1  0  0  0
  3  2  1  0  0  0
  2  1  1  0  0  0
  1 14  1  0  0  0
 14 15  1  0  0  0
 15 21  1  0  0  0
 19 20  2  0  0  0
 19 22  1  0  0  0
 20 21  1  0  0  0
 20 23  1  0  0  0
 22 24  1  0  0  0
 23 25  1  0  0  0
M  END
> <minimizedAffinity>
-8.51121

> <CNNscore>
0.6624906659

> <CNNaffinity>
6.6223669052

> <CNN_VS>
4.3872561455

> <CNNaffinity_variance>
0.3066481054

$$$$



 25 25  0  0  0  0  0  0  0  0999 V2000
  -45.9197   58.8814   65.4646 C   0  0  0  0  0  0  0  0  0  0  0  0
  -46.8064   60.0979   65.1597 C   0  0  0  0  0  0  0  0  0  0  0  0
  -48.1363   59.6505   64.5688 C   0  0  0  0  0  0  0  0  0  0  0  0
  -48.8466   60.8540   63.9483 C   0  0  0  0  0  0  0  0  0  0  0  0
  -49.3688   60.4976   62.5566 C   0  0  0  0  0  0  0  0  0  0  0  0
  -50.5419   58.1380   62.1931 C   0  0  0  0  0  0  0  0  0  0  0  0
  -50.5809   59.5812   62.7326 C   0  0  0  0  0  0  0  0  0  0  0  0
  -49.3618   57.6076   61.3645 C   0  0  0  0  0  0  0  0  0  0  0  0
  -49.6886   57.8735   59.8877 C   0  0  0  0  0  0  0  0  0  0  0  0
  -49.1122   56.9963   58.7506 C   0  0  0  0  0  0  0  0  0  0  0  0
  -48.2057   55.7838   59.0398 C   0  0  0  0  0  0  0  0  0  0  0  0
  -47.3146   55.4104   56.6957 C   0  0  0  0  0  0  0  0  0  0  0  0
  -46.9875   55.8891   58.1122 C   0  0  0  0  0  0  0  0  0  0  0  0
  -44.5338   58.9427   64.7716 C   0  0  0  0  0  0  0  0  0  0  0  0
  -43.6288   60.0714   65.3198 C   0  0  0  0  0  0  0  0  0  0  0  0
  -40.9790   61.0656   62.9229 C   0  0  0  0  0  0  0  0  0  0  0  0
  -39.9034   60.2609   63.3217 C   0  0  0  0  0  0  0  0  0  0  0  0
  -42.2062   60.9886   63.5922 C   0  0  0  0  0  0  0  0  0  0  0  0
  -40.0800   59.3893   64.3961 C   0  0  0  0  0  0  0  0  0  0  0  0
  -41.3022   59.3235   65.0630 C   0  0  0  0  0  0  0  0  0  0  0  0
  -42.3778   60.1404   64.6920 C   0  0  0  0  0  0  0  0  0  0  0  0
  -39.0908   58.5764   64.8415 O   0  0  0  0  0  0  0  0  0  0  0  0
  -41.4262   58.4616   66.1135 O   0  0  0  0  0  0  0  0  0  0  0  0
  -38.2522   58.5866   64.4237 H   0  0  0  0  0  0  0  0  0  0  0  0
  -40.7052   57.9162   66.3597 H   0  0  0  0  0  0  0  0  0  0  0  0
 12 13  1  0  0  0
  9 10  2  0  0  0
  9  8  1  0  0  0
  6  7  2  0  0  0
  6  8  1  0  0  0
 10 11  1  0  0  0
  7  5  1  0  0  0
 16 17  2  0  0  0
 16 18  1  0  0  0
 17 19  1  0  0  0
 18 21  2  0  0  0
 13 11  1  0  0  0
  5  4  1  0  0  0
  4  3  1  0  0  0
  3  2  1  0  0  0
  2  1  1  0  0  0
  1 14  1  0  0  0
 14 15  1  0  0  0
 15 21  1  0  0  0
 19 20  2  0  0  0
 19 22  1  0  0  0
 20 21  1  0  0  0
 20 23  1  0  0  0
 22 24  1  0  0  0
 23 25  1  0  0  0
M  END
> <minimizedAffinity>
-8.53326

> <CNNscore>
0.6618152261

> <CNNaffinity>
6.7215218544

> <CNN_VS>
4.4484057426

> <CNNaffinity_variance>
0.4891386628

$$$$



 25 25  0  0  0  0  0  0  0  0999 V2000
  -48.3950   59.7921   65.8495 C   0  0  0  0  0  0  0  0  0  0  0  0
  -48.4288   60.8401   64.7271 C   0  0  0  0  0  0  0  0  0  0  0  0
  -49.5560   60.5351   63.7502 C   0  0  0  0  0  0  0  0  0  0  0  0
  -49.0377   60.6723   62.3182 C   0  0  0  0  0  0  0  0  0  0  0  0
  -50.0450   60.0776   61.3342 C   0  0  0  0  0  0  0  0  0  0  0  0
  -50.7582   57.5149   61.3418 C   0  0  0  0  0  0  0  0  0  0  0  0
  -50.7309   58.8969   62.0236 C   0  0  0  0  0  0  0  0  0  0  0  0
  -50.2215   57.2957   59.9189 C   0  0  0  0  0  0  0  0  0  0  0  0
  -49.1460   56.2028   60.0031 C   0  0  0  0  0  0  0  0  0  0  0  0
  -47.9150   56.1913   59.0654 C   0  0  0  0  0  0  0  0  0  0  0  0
  -47.6814   57.2972   58.0176 C   0  0  0  0  0  0  0  0  0  0  0  0
  -47.6223   55.1298   56.7034 C   0  0  0  0  0  0  0  0  0  0  0  0
  -47.2413   56.6122   56.7166 C   0  0  0  0  0  0  0  0  0  0  0  0
  -46.9612   59.4668   66.3426 C   0  0  0  0  0  0  0  0  0  0  0  0
  -45.8786   59.7003   65.2624 C   0  0  0  0  0  0  0  0  0  0  0  0
  -43.9712   56.5198   65.2972 C   0  0  0  0  0  0  0  0  0  0  0  0
  -42.6765   56.9555   65.6089 C   0  0  0  0  0  0  0  0  0  0  0  0
  -45.0207   57.4401   65.1895 C   0  0  0  0  0  0  0  0  0  0  0  0
  -42.4566   58.3188   65.8047 C   0  0  0  0  0  0  0  0  0  0  0  0
  -43.5044   59.2306   65.6881 C   0  0  0  0  0  0  0  0  0  0  0  0
  -44.7982   58.8122   65.3517 C   0  0  0  0  0  0  0  0  0  0  0  0
  -41.2351   58.8204   66.1114 O   0  0  0  0  0  0  0  0  0  0  0  0
  -43.2405   60.5554   65.8806 O   0  0  0  0  0  0  0  0  0  0  0  0
  -40.5010   58.2448   66.1999 H   0  0  0  0  0  0  0  0  0  0  0  0
  -42.3743   60.8327   66.1056 H   0  0  0  0  0  0  0  0  0  0  0  0
 12 13  1  0  0  0
  9 10  2  0  0  0
  9  8  1  0  0  0
  6  7  2  0  0  0
  6  8  1  0  0  0
 10 11  1  0  0  0
  7  5  1  0  0  0
 16 17  2  0  0  0
 16 18  1  0  0  0
 17 19  1  0  0  0
 18 21  2  0  0  0
 13 11  1  0  0  0
  5  4  1  0  0  0
  4  3  1  0  0  0
  3  2  1  0  0  0
  2  1  1  0  0  0
  1 14  1  0  0  0
 14 15  1  0  0  0
 15 21  1  0  0  0
 19 20  2  0  0  0
 19 22  1  0  0  0
 20 21  1  0  0  0
 20 23  1  0  0  0
 22 24  1  0  0  0
 23 25  1  0  0  0
M  END
> <minimizedAffinity>
-8.59116

> <CNNscore>
0.6417891383

> <CNNaffinity>
6.7157831192

> <CNN_VS>
4.3101167679

> <CNNaffinity_variance>
0.3319534659

$$$$



 25 25  0  0  0  0  0  0  0  0999 V2000
  -43.8588   58.4281   64.8676 C   0  0  0  0  0  0  0  0  0  0  0  0
  -44.2968   57.0472   65.3777 C   0  0  0  0  0  0  0  0  0  0  0  0
  -45.6910   57.1233   65.9848 C   0  0  0  0  0  0  0  0  0  0  0  0
  -46.5546   58.0742   65.1553 C   0  0  0  0  0  0  0  0  0  0  0  0
  -47.0061   59.2576   66.0111 C   0  0  0  0  0  0  0  0  0  0  0  0
  -48.7126   60.7528   64.6223 C   0  0  0  0  0  0  0  0  0  0  0  0
  -47.2733   60.4370   65.0743 C   0  0  0  0  0  0  0  0  0  0  0  0
  -49.8990   59.8451   64.9818 C   0  0  0  0  0  0  0  0  0  0  0  0
  -51.0764   60.2624   64.0886 C   0  0  0  0  0  0  0  0  0  0  0  0
  -51.3050   59.6390   62.6908 C   0  0  0  0  0  0  0  0  0  0  0  0
  -50.3831   58.5375   62.1318 C   0  0  0  0  0  0  0  0  0  0  0  0
  -49.4904   60.5688   60.9048 C   0  0  0  0  0  0  0  0  0  0  0  0
  -49.7742   59.0667   60.8261 C   0  0  0  0  0  0  0  0  0  0  0  0
  -42.7879   59.1023   65.7639 C   0  0  0  0  0  0  0  0  0  0  0  0
  -42.1280   60.3347   65.1012 C   0  0  0  0  0  0  0  0  0  0  0  0
  -38.7249   58.9374   64.6304 C   0  0  0  0  0  0  0  0  0  0  0  0
  -37.9096   60.0129   65.0070 C   0  0  0  0  0  0  0  0  0  0  0  0
  -40.1190   59.0586   64.6704 C   0  0  0  0  0  0  0  0  0  0  0  0
  -38.5138   61.2014   65.4165 C   0  0  0  0  0  0  0  0  0  0  0  0
  -39.9025   61.3179   65.4464 C   0  0  0  0  0  0  0  0  0  0  0  0
  -40.7295   60.2598   65.0481 C   0  0  0  0  0  0  0  0  0  0  0  0
  -37.7965   62.2864   65.7986 O   0  0  0  0  0  0  0  0  0  0  0  0
  -40.4491   62.5023   65.8466 O   0  0  0  0  0  0  0  0  0  0  0  0
  -36.8601   62.2541   65.7945 H   0  0  0  0  0  0  0  0  0  0  0  0
  -39.8937   63.2085   66.1125 H   0  0  0  0  0  0  0  0  0  0  0  0
 12 13  1  0  0  0
  9 10  2  0  0  0
  9  8  1  0  0  0
  6  7  2  0  0  0
  6  8  1  0  0  0
 10 11  1  0  0  0
  7  5  1  0  0  0
 16 17  2  0  0  0
 16 18  1  0  0  0
 17 19  1  0  0  0
 18 21  2  0  0  0
 13 11  1  0  0  0
  5  4  1  0  0  0
  4  3  1  0  0  0
  3  2  1  0  0  0
  2  1  1  0  0  0
  1 14  1  0  0  0
 14 15  1  0  0  0
 15 21  1  0  0  0
 19 20  2  0  0  0
 19 22  1  0  0  0
 20 21  1  0  0  0
 20 23  1  0  0  0
 22 24  1  0  0  0
 23 25  1  0  0  0
M  END
> <minimizedAffinity>
-8.86518

> <CNNscore>
0.6206570864

> <CNNaffinity>
6.5362329483

> <CNN_VS>
4.0567593575

> <CNNaffinity_variance>
0.3693446219

$$$$



 25 25  0  0  0  0  0  0  0  0999 V2000
  -43.2496   57.8119   65.7757 C   0  0  0  0  0  0  0  0  0  0  0  0
  -44.0672   58.6197   64.7568 C   0  0  0  0  0  0  0  0  0  0  0  0
  -45.1455   59.4293   65.4638 C   0  0  0  0  0  0  0  0  0  0  0  0
  -46.3316   58.5205   65.7886 C   0  0  0  0  0  0  0  0  0  0  0  0
  -47.2044   58.3302   64.5482 C   0  0  0  0  0  0  0  0  0  0  0  0
  -49.7918   58.2403   65.1596 C   0  0  0  0  0  0  0  0  0  0  0  0
  -48.4390   57.5282   64.9639 C   0  0  0  0  0  0  0  0  0  0  0  0
  -49.9308   59.7679   65.0711 C   0  0  0  0  0  0  0  0  0  0  0  0
  -51.1142   60.0624   64.1378 C   0  0  0  0  0  0  0  0  0  0  0  0
  -50.9430   60.1552   62.6026 C   0  0  0  0  0  0  0  0  0  0  0  0
  -49.5803   59.9215   61.9214 C   0  0  0  0  0  0  0  0  0  0  0  0
  -50.7293   57.7003   61.5038 C   0  0  0  0  0  0  0  0  0  0  0  0
  -49.7448   58.7377   60.9585 C   0  0  0  0  0  0  0  0  0  0  0  0
  -41.9465   58.5249   66.2208 C   0  0  0  0  0  0  0  0  0  0  0  0
  -41.5568   59.7084   65.3037 C   0  0  0  0  0  0  0  0  0  0  0  0
  -37.9978   58.8987   64.6454 C   0  0  0  0  0  0  0  0  0  0  0  0
  -37.3602   60.1117   64.9377 C   0  0  0  0  0  0  0  0  0  0  0  0
  -39.3868   58.7804   64.7747 C   0  0  0  0  0  0  0  0  0  0  0  0
  -38.1356   61.1936   65.3544 C   0  0  0  0  0  0  0  0  0  0  0  0
  -39.5190   61.0712   65.4734 C   0  0  0  0  0  0  0  0  0  0  0  0
  -40.1724   59.8726   65.1598 C   0  0  0  0  0  0  0  0  0  0  0  0
  -37.5956   62.3992   65.6585 O   0  0  0  0  0  0  0  0  0  0  0  0
  -40.2375   62.1586   65.8771 O   0  0  0  0  0  0  0  0  0  0  0  0
  -36.6698   62.5279   65.5930 H   0  0  0  0  0  0  0  0  0  0  0  0
  -39.7980   62.9592   66.0863 H   0  0  0  0  0  0  0  0  0  0  0  0
 12 13  1  0  0  0
  9 10  2  0  0  0
  9  8  1  0  0  0
  6  7  2  0  0  0
  6  8  1  0  0  0
 10 11  1  0  0  0
  7  5  1  0  0  0
 16 17  2  0  0  0
 16 18  1  0  0  0
 17 19  1  0  0  0
 18 21  2  0  0  0
 13 11  1  0  0  0
  5  4  1  0  0  0
  4  3  1  0  0  0
  3  2  1  0  0  0
  2  1  1  0  0  0
  1 14  1  0  0  0
 14 15  1  0  0  0
 15 21  1  0  0  0
 19 20  2  0  0  0
 19 22  1  0  0  0
 20 21  1  0  0  0
 20 23  1  0  0  0
 22 24  1  0  0  0
 23 25  1  0  0  0
M  END
> <minimizedAffinity>
-8.83806

> <CNNscore>
0.5918039083

> <CNNaffinity>
6.4635148048

> <CNN_VS>
3.8251333237

> <CNNaffinity_variance>
0.3291673958

$$$$
