


 25 25  0  0  0  0  0  0  0  0999 V2000
  -43.6365   56.7957   66.4665 C   0  0  0  0  0  0  0  0  0  0  0  0
  -44.9781   57.1729   65.8208 C   0  0  0  0  0  0  0  0  0  0  0  0
  -45.6459   58.2962   66.6021 C   0  0  0  0  0  0  0  0  0  0  0  0
  -46.5017   59.1357   65.6529 C   0  0  0  0  0  0  0  0  0  0  0  0
  -47.4486   58.2344   64.8609 C   0  0  0  0  0  0  0  0  0  0  0  0
  -49.9434   58.8328   65.5636 C   0  0  0  0  0  0  0  0  0  0  0  0
  -48.6783   57.9687   65.7311 C   0  0  0  0  0  0  0  0  0  0  0  0
  -49.9826   60.0501   64.6269 C   0  0  0  0  0  0  0  0  0  0  0  0
  -51.3416   60.0289   63.9121 C   0  0  0  0  0  0  0  0  0  0  0  0
  -51.5573   59.2617   62.5856 C   0  0  0  0  0  0  0  0  0  0  0  0
  -50.4282   58.4458   61.9261 C   0  0  0  0  0  0  0  0  0  0  0  0
  -50.1037   56.5197   60.3095 C   0  0  0  0  0  0  0  0  0  0  0  0
  -51.0613   57.6039   60.8098 C   0  0  0  0  0  0  0  0  0  0  0  0
  -42.6937   58.0089   66.6765 C   0  0  0  0  0  0  0  0  0  0  0  0
  -42.1519   58.5950   65.3512 C   0  0  0  0  0  0  0  0  0  0  0  0
  -38.5380   57.8695   64.9408 C   0  0  0  0  0  0  0  0  0  0  0  0
  -37.9453   59.0530   65.4005 C   0  0  0  0  0  0  0  0  0  0  0  0
  -39.9312   57.7322   64.9340 C   0  0  0  0  0  0  0  0  0  0  0  0
  -38.7691   60.0869   65.8452 C   0  0  0  0  0  0  0  0  0  0  0  0
  -40.1558   59.9465   65.8284 C   0  0  0  0  0  0  0  0  0  0  0  0
  -40.7626   58.7793   65.3473 C   0  0  0  0  0  0  0  0  0  0  0  0
  -38.2747   61.2615   66.3073 O   0  0  0  0  0  0  0  0  0  0  0  0
  -40.9220   60.9874   66.2657 O   0  0  0  0  0  0  0  0  0  0  0  0
  -37.3485   61.4006   66.3370 H   0  0  0  0  0  0  0  0  0  0  0  0
  -40.5137   61.7672   66.5870 H   0  0  0  0  0  0  0  0  0  0  0  0
 12 13  1  0  0  0
  9 10  2  0  0  0
  9  8  1  0  0  0
  6  7  2  0  0  0
  6  8  1  0  0  0
 10 11  1  0  0  0
  7  5  1  0  0  0
 16 17  2  0  0  0
 16 18  1  0  0  0
 17 19  1  0  0  0
 18 21  2  0  0  0
 13 11  1  0  0  0
  5  4  1  0  0  0
  4  3  1  0  0  0
  3  2  1  0  0  0
  2  1  1  0  0  0
  1 14  1  0  0  0
 14 15  1  0  0  0
 15 21  1  0  0  0
 19 20  2  0  0  0
 19 22  1  0  0  0
 20 21  1  0  0  0
 20 23  1  0  0  0
 22 24  1  0  0  0
 23 25  1  0  0  0
M  END
> <minimizedAffinity>
-8.90279

> <CNNscore>
0.8474622965

> <CNNaffinity>
6.8386979103

> <CNN_VS>
5.7955384254

> <CNNaffinity_variance>
0.3864524066

$$$$



 25 25  0  0  0  0  0  0  0  0999 V2000
  -45.3346   58.2384   64.7834 C   0  0  0  0  0  0  0  0  0  0  0  0
  -46.6125   58.2984   65.6334 C   0  0  0  0  0  0  0  0  0  0  0  0
  -47.5604   59.3600   65.0923 C   0  0  0  0  0  0  0  0  0  0  0  0
  -48.7486   59.5116   66.0427 C   0  0  0  0  0  0  0  0  0  0  0  0
  -49.9513   58.7325   65.5108 C   0  0  0  0  0  0  0  0  0  0  0  0
  -51.3973   60.0541   63.7112 C   0  0  0  0  0  0  0  0  0  0  0  0
  -51.0529   59.7412   65.1805 C   0  0  0  0  0  0  0  0  0  0  0  0
  -50.5858   59.4764   62.5414 C   0  0  0  0  0  0  0  0  0  0  0  0
  -51.2339   58.1383   62.1568 C   0  0  0  0  0  0  0  0  0  0  0  0
  -51.0308   57.5012   60.7613 C   0  0  0  0  0  0  0  0  0  0  0  0
  -50.1366   58.1572   59.6910 C   0  0  0  0  0  0  0  0  0  0  0  0
  -49.1157   55.8541   59.9772 C   0  0  0  0  0  0  0  0  0  0  0  0
  -49.3147   57.0412   59.0317 C   0  0  0  0  0  0  0  0  0  0  0  0
  -44.0367   58.1770   65.6299 C   0  0  0  0  0  0  0  0  0  0  0  0
  -43.1945   59.4721   65.5471 C   0  0  0  0  0  0  0  0  0  0  0  0
  -39.8835   57.8553   65.1245 C   0  0  0  0  0  0  0  0  0  0  0  0
  -39.1879   58.8024   64.3614 C   0  0  0  0  0  0  0  0  0  0  0  0
  -41.2076   58.0933   65.5118 C   0  0  0  0  0  0  0  0  0  0  0  0
  -39.8409   59.9791   63.9949 C   0  0  0  0  0  0  0  0  0  0  0  0
  -41.1620   60.2061   64.3772 C   0  0  0  0  0  0  0  0  0  0  0  0
  -41.8779   59.2569   65.1179 C   0  0  0  0  0  0  0  0  0  0  0  0
  -39.2377   60.9455   63.2601 O   0  0  0  0  0  0  0  0  0  0  0  0
  -41.7627   61.3681   63.9890 O   0  0  0  0  0  0  0  0  0  0  0  0
  -38.3501   60.8361   62.9806 H   0  0  0  0  0  0  0  0  0  0  0  0
  -41.2816   62.0014   63.4936 H   0  0  0  0  0  0  0  0  0  0  0  0
 12 13  1  0  0  0
  9 10  2  0  0  0
  9  8  1  0  0  0
  6  7  2  0  0  0
  6  8  1  0  0  0
 10 11  1  0  0  0
  7  5  1  0  0  0
 16 17  2  0  0  0
 16 18  1  0  0  0
 17 19  1  0  0  0
 18 21  2  0  0  0
 13 11  1  0  0  0
  5  4  1  0  0  0
  4  3  1  0  0  0
  3  2  1  0  0  0
  2  1  1  0  0  0
  1 14  1  0  0  0
 14 15  1  0  0  0
 15 21  1  0  0  0
 19 20  2  0  0  0
 19 22  1  0  0  0
 20 21  1  0  0  0
 20 23  1  0  0  0
 22 24  1  0  0  0
 23 25  1  0  0  0
M  END
> <minimizedAffinity>
-8.62323

> <CNNscore>
0.7867400050

> <CNNaffinity>
6.6057953835

> <CNN_VS>
5.1970434189

> <CNNaffinity_variance>
0.2104458511

$$$$



 25 25  0  0  0  0  0  0  0  0999 V2000
  -42.2021   59.7782   64.3195 C   0  0  0  0  0  0  0  0  0  0  0  0
  -42.2218   59.1097   65.7022 C   0  0  0  0  0  0  0  0  0  0  0  0
  -43.4936   58.2914   65.8780 C   0  0  0  0  0  0  0  0  0  0  0  0
  -44.6443   58.9768   65.1404 C   0  0  0  0  0  0  0  0  0  0  0  0
  -45.5561   57.9309   64.4991 C   0  0  0  0  0  0  0  0  0  0  0  0
  -48.0468   57.5590   65.3560 C   0  0  0  0  0  0  0  0  0  0  0  0
  -46.5260   57.4347   65.5730 C   0  0  0  0  0  0  0  0  0  0  0  0
  -48.6414   58.2825   64.1380 C   0  0  0  0  0  0  0  0  0  0  0  0
  -50.0817   58.6728   64.5007 C   0  0  0  0  0  0  0  0  0  0  0  0
  -51.1254   59.0467   63.4211 C   0  0  0  0  0  0  0  0  0  0  0  0
  -50.7870   59.0135   61.9178 C   0  0  0  0  0  0  0  0  0  0  0  0
  -50.3404   57.0621   60.3618 C   0  0  0  0  0  0  0  0  0  0  0  0
  -51.3212   57.6891   61.3556 C   0  0  0  0  0  0  0  0  0  0  0  0
  -40.8180   60.3666   63.9417 C   0  0  0  0  0  0  0  0  0  0  0  0
  -40.6157   60.5139   62.4150 C   0  0  0  0  0  0  0  0  0  0  0  0
  -38.4208   57.5337   62.1773 C   0  0  0  0  0  0  0  0  0  0  0  0
  -38.0433   57.5521   60.8281 C   0  0  0  0  0  0  0  0  0  0  0  0
  -39.2699   58.5228   62.6879 C   0  0  0  0  0  0  0  0  0  0  0  0
  -38.5321   58.5694   60.0086 C   0  0  0  0  0  0  0  0  0  0  0  0
  -39.3834   59.5466   60.5217 C   0  0  0  0  0  0  0  0  0  0  0  0
  -39.7898   59.5258   61.8620 C   0  0  0  0  0  0  0  0  0  0  0  0
  -38.2125   58.6595   58.6943 O   0  0  0  0  0  0  0  0  0  0  0  0
  -39.8430   60.5179   59.6808 O   0  0  0  0  0  0  0  0  0  0  0  0
  -37.6433   58.0246   58.3059 H   0  0  0  0  0  0  0  0  0  0  0  0
  -39.5696   60.5296   58.7846 H   0  0  0  0  0  0  0  0  0  0  0  0
 12 13  1  0  0  0
  9 10  2  0  0  0
  9  8  1  0  0  0
  6  7  2  0  0  0
  6  8  1  0  0  0
 10 11  1  0  0  0
  7  5  1  0  0  0
 16 17  2  0  0  0
 16 18  1  0  0  0
 17 19  1  0  0  0
 18 21  2  0  0  0
 13 11  1  0  0  0
  5  4  1  0  0  0
  4  3  1  0  0  0
  3  2  1  0  0  0
  2  1  1  0  0  0
  1 14  1  0  0  0
 14 15  1  0  0  0
 15 21  1  0  0  0
 19 20  2  0  0  0
 19 22  1  0  0  0
 20 21  1  0  0  0
 20 23  1  0  0  0
 22 24  1  0  0  0
 23 25  1  0  0  0
M  END
> <minimizedAffinity>
-9.05324

> <CNNscore>
0.7225217819

> <CNNaffinity>
6.4456062317

> <CNN_VS>
4.6570906639

> <CNNaffinity_variance>
0.3002715409

$$$$



 25 25  0  0  0  0  0  0  0  0999 V2000
  -49.4087   57.6001   65.9149 C   0  0  0  0  0  0  0  0  0  0  0  0
  -49.6077   59.0951   65.6244 C   0  0  0  0  0  0  0  0  0  0  0  0
  -50.6242   59.2881   64.5075 C   0  0  0  0  0  0  0  0  0  0  0  0
  -50.0431   60.2256   63.4485 C   0  0  0  0  0  0  0  0  0  0  0  0
  -49.9527   59.5077   62.1021 C   0  0  0  0  0  0  0  0  0  0  0  0
  -51.1653   57.4813   60.8775 C   0  0  0  0  0  0  0  0  0  0  0  0
  -51.1045   58.5036   62.0293 C   0  0  0  0  0  0  0  0  0  0  0  0
  -50.1659   57.5054   59.7108 C   0  0  0  0  0  0  0  0  0  0  0  0
  -49.1309   56.4026   59.9771 C   0  0  0  0  0  0  0  0  0  0  0  0
  -48.2259   55.8405   58.8547 C   0  0  0  0  0  0  0  0  0  0  0  0
  -48.2882   56.3821   57.4131 C   0  0  0  0  0  0  0  0  0  0  0  0
  -46.3356   57.9454   57.8274 C   0  0  0  0  0  0  0  0  0  0  0  0
  -46.8596   56.7662   57.0043 C   0  0  0  0  0  0  0  0  0  0  0  0
  -47.9176   57.1765   65.9593 C   0  0  0  0  0  0  0  0  0  0  0  0
  -47.0124   58.0403   65.0494 C   0  0  0  0  0  0  0  0  0  0  0  0
  -43.7619   56.4924   65.9404 C   0  0  0  0  0  0  0  0  0  0  0  0
  -42.9163   57.6068   66.0197 C   0  0  0  0  0  0  0  0  0  0  0  0
  -45.1157   56.6528   65.6216 C   0  0  0  0  0  0  0  0  0  0  0  0
  -43.4487   58.8718   65.7718 C   0  0  0  0  0  0  0  0  0  0  0  0
  -44.7957   59.0237   65.4472 C   0  0  0  0  0  0  0  0  0  0  0  0
  -45.6467   57.9163   65.3389 C   0  0  0  0  0  0  0  0  0  0  0  0
  -42.6986   59.9994   65.8308 O   0  0  0  0  0  0  0  0  0  0  0  0
  -45.2706   60.2797   65.2052 O   0  0  0  0  0  0  0  0  0  0  0  0
  -41.7881   59.9457   66.0454 H   0  0  0  0  0  0  0  0  0  0  0  0
  -44.6993   61.0188   65.2783 H   0  0  0  0  0  0  0  0  0  0  0  0
 12 13  1  0  0  0
  9 10  2  0  0  0
  9  8  1  0  0  0
  6  7  2  0  0  0
  6  8  1  0  0  0
 10 11  1  0  0  0
  7  5  1  0  0  0
 16 17  2  0  0  0
 16 18  1  0  0  0
 17 19  1  0  0  0
 18 21  2  0  0  0
 13 11  1  0  0  0
  5  4  1  0  0  0
  4  3  1  0  0  0
  3  2  1  0  0  0
  2  1  1  0  0  0
  1 14  1  0  0  0
 14 15  1  0  0  0
 15 21  1  0  0  0
 19 20  2  0  0  0
 19 22  1  0  0  0
 20 21  1  0  0  0
 20 23  1  0  0  0
 22 24  1  0  0  0
 23 25  1  0  0  0
M  END
> <minimizedAffinity>
-8.86356

> <CNNscore>
0.7006348968

> <CNNaffinity>
6.9061965942

> <CNN_VS>
4.8387222290

> <CNNaffinity_variance>
0.5873246193

$$$$



 25 25  0  0  0  0  0  0  0  0999 V2000
  -34.2019   58.3289   64.4318 C   0  0  0  0  0  0  0  0  0  0  0  0
  -33.6966   58.8339   63.0722 C   0  0  0  0  0  0  0  0  0  0  0  0
  -33.2468   57.6655   62.2058 C   0  0  0  0  0  0  0  0  0  0  0  0
  -34.3466   57.3273   61.1987 C   0  0  0  0  0  0  0  0  0  0  0  0
  -34.1698   55.8983   60.6857 C   0  0  0  0  0  0  0  0  0  0  0  0
  -35.5279   56.3183   58.4373 C   0  0  0  0  0  0  0  0  0  0  0  0
  -34.2185   55.9409   59.1573 C   0  0  0  0  0  0  0  0  0  0  0  0
  -36.8437   56.5408   59.1988 C   0  0  0  0  0  0  0  0  0  0  0  0
  -37.4597   57.8439   58.6691 C   0  0  0  0  0  0  0  0  0  0  0  0
  -38.3346   58.7576   59.5603 C   0  0  0  0  0  0  0  0  0  0  0  0
  -38.6071   58.4283   61.0412 C   0  0  0  0  0  0  0  0  0  0  0  0
  -40.2769   60.2369   60.4334 C   0  0  0  0  0  0  0  0  0  0  0  0
  -39.5891   59.4812   61.5730 C   0  0  0  0  0  0  0  0  0  0  0  0
  -35.7353   58.1009   64.4707 C   0  0  0  0  0  0  0  0  0  0  0  0
  -36.5272   59.3609   64.8933 C   0  0  0  0  0  0  0  0  0  0  0  0
  -39.8054   57.6266   64.8599 C   0  0  0  0  0  0  0  0  0  0  0  0
  -40.6656   58.6118   65.3627 C   0  0  0  0  0  0  0  0  0  0  0  0
  -38.4392   57.8912   64.7074 C   0  0  0  0  0  0  0  0  0  0  0  0
  -40.1334   59.8535   65.7094 C   0  0  0  0  0  0  0  0  0  0  0  0
  -38.7708   60.1076   65.5623 C   0  0  0  0  0  0  0  0  0  0  0  0
  -37.8951   59.1238   65.0855 C   0  0  0  0  0  0  0  0  0  0  0  0
  -40.8980   60.8597   66.1998 O   0  0  0  0  0  0  0  0  0  0  0  0
  -38.2937   61.3344   65.9218 O   0  0  0  0  0  0  0  0  0  0  0  0
  -41.8194   60.7343   66.3157 H   0  0  0  0  0  0  0  0  0  0  0  0
  -38.8816   61.9907   66.2405 H   0  0  0  0  0  0  0  0  0  0  0  0
 12 13  1  0  0  0
  9 10  2  0  0  0
  9  8  1  0  0  0
  6  7  2  0  0  0
  6  8  1  0  0  0
 10 11  1  0  0  0
  7  5  1  0  0  0
 16 17  2  0  0  0
 16 18  1  0  0  0
 17 19  1  0  0  0
 18 21  2  0  0  0
 13 11  1  0  0  0
  5  4  1  0  0  0
  4  3  1  0  0  0
  3  2  1  0  0  0
  2  1  1  0  0  0
  1 14  1  0  0  0
 14 15  1  0  0  0
 15 21  1  0  0  0
 19 20  2  0  0  0
 19 22  1  0  0  0
 20 21  1  0  0  0
 20 23  1  0  0  0
 22 24  1  0  0  0
 23 25  1  0  0  0
M  END
> <minimizedAffinity>
-7.81798

> <CNNscore>
0.6835607290

> <CNNaffinity>
6.4472246170

> <CNN_VS>
4.4070696831

> <CNNaffinity_variance>
0.1300595999

$$$$



 25 25  0  0  0  0  0  0  0  0999 V2000
  -50.9120   57.9777   61.5866 C   0  0  0  0  0  0  0  0  0  0  0  0
  -51.0244   59.1705   62.5476 C   0  0  0  0  0  0  0  0  0  0  0  0
  -50.7489   58.7274   63.9780 C   0  0  0  0  0  0  0  0  0  0  0  0
  -49.2865   58.2989   64.1040 C   0  0  0  0  0  0  0  0  0  0  0  0
  -48.3922   59.5251   64.2862 C   0  0  0  0  0  0  0  0  0  0  0  0
  -46.4305   58.9762   65.9970 C   0  0  0  0  0  0  0  0  0  0  0  0
  -47.8522   59.5014   65.7173 C   0  0  0  0  0  0  0  0  0  0  0  0
  -45.5596   58.3513   64.8961 C   0  0  0  0  0  0  0  0  0  0  0  0
  -45.0081   57.0293   65.4496 C   0  0  0  0  0  0  0  0  0  0  0  0
  -43.7281   56.9754   66.3176 C   0  0  0  0  0  0  0  0  0  0  0  0
  -42.9548   58.2511   66.7050 C   0  0  0  0  0  0  0  0  0  0  0  0
  -42.1020   59.7009   64.8078 C   0  0  0  0  0  0  0  0  0  0  0  0
  -41.8499   58.4542   65.6592 C   0  0  0  0  0  0  0  0  0  0  0  0
  -49.9324   58.2270   60.4106 C   0  0  0  0  0  0  0  0  0  0  0  0
  -48.5822   57.4903   60.5769 C   0  0  0  0  0  0  0  0  0  0  0  0
  -46.6674   57.6968   57.4073 C   0  0  0  0  0  0  0  0  0  0  0  0
  -46.8730   56.4256   56.8550 C   0  0  0  0  0  0  0  0  0  0  0  0
  -47.2426   58.0348   58.6381 C   0  0  0  0  0  0  0  0  0  0  0  0
  -47.6556   55.5083   57.5560 C   0  0  0  0  0  0  0  0  0  0  0  0
  -48.2189   55.8488   58.7847 C   0  0  0  0  0  0  0  0  0  0  0  0
  -48.0005   57.1067   59.3609 C   0  0  0  0  0  0  0  0  0  0  0  0
  -47.9043   54.2601   57.0893 O   0  0  0  0  0  0  0  0  0  0  0  0
  -48.9708   54.9164   59.4381 O   0  0  0  0  0  0  0  0  0  0  0  0
  -47.5463   53.9872   56.2675 H   0  0  0  0  0  0  0  0  0  0  0  0
  -49.1154   54.0757   59.0505 H   0  0  0  0  0  0  0  0  0  0  0  0
 12 13  1  0  0  0
  9 10  2  0  0  0
  9  8  1  0  0  0
  6  7  2  0  0  0
  6  8  1  0  0  0
 10 11  1  0  0  0
  7  5  1  0  0  0
 16 17  2  0  0  0
 16 18  1  0  0  0
 17 19  1  0  0  0
 18 21  2  0  0  0
 13 11  1  0  0  0
  5  4  1  0  0  0
  4  3  1  0  0  0
  3  2  1  0  0  0
  2  1  1  0  0  0
  1 14  1  0  0  0
 14 15  1  0  0  0
 15 21  1  0  0  0
 19 20  2  0  0  0
 19 22  1  0  0  0
 20 21  1  0  0  0
 20 23  1  0  0  0
 22 24  1  0  0  0
 23 25  1  0  0  0
M  END
> <minimizedAffinity>
-9.04833

> <CNNscore>
0.6649959087

> <CNNaffinity>
7.2498145103

> <CNN_VS>
4.8210968971

> <CNNaffinity_variance>
0.9766931534

$$$$



 25 25  0  0  0  0  0  0  0  0999 V2000
  -42.8940   59.2251   65.4945 C   0  0  0  0  0  0  0  0  0  0  0  0
  -43.1442   58.0001   66.3865 C   0  0  0  0  0  0  0  0  0  0  0  0
  -44.0873   57.0244   65.6959 C   0  0  0  0  0  0  0  0  0  0  0  0
  -45.1274   57.8061   64.8927 C   0  0  0  0  0  0  0  0  0  0  0  0
  -46.4270   57.9251   65.6885 C   0  0  0  0  0  0  0  0  0  0  0  0
  -47.6689   60.2691   65.4904 C   0  0  0  0  0  0  0  0  0  0  0  0
  -46.5772   59.3841   66.1231 C   0  0  0  0  0  0  0  0  0  0  0  0
  -48.5517   59.7753   64.3338 C   0  0  0  0  0  0  0  0  0  0  0  0
  -49.8938   59.3412   64.9409 C   0  0  0  0  0  0  0  0  0  0  0  0
  -51.1693   59.1824   64.0791 C   0  0  0  0  0  0  0  0  0  0  0  0
  -51.1550   59.4168   62.5558 C   0  0  0  0  0  0  0  0  0  0  0  0
  -49.8434   57.5597   61.4336 C   0  0  0  0  0  0  0  0  0  0  0  0
  -51.2264   58.0414   61.8785 C   0  0  0  0  0  0  0  0  0  0  0  0
  -41.4442   59.3017   64.9494 C   0  0  0  0  0  0  0  0  0  0  0  0
  -40.3714   59.0660   66.0388 C   0  0  0  0  0  0  0  0  0  0  0  0
  -37.2923   57.6249   64.5564 C   0  0  0  0  0  0  0  0  0  0  0  0
  -36.4158   58.7179   64.5760 C   0  0  0  0  0  0  0  0  0  0  0  0
  -38.5969   57.7553   65.0472 C   0  0  0  0  0  0  0  0  0  0  0  0
  -36.8700   59.9328   65.0888 C   0  0  0  0  0  0  0  0  0  0  0  0
  -38.1727   60.0579   65.5687 C   0  0  0  0  0  0  0  0  0  0  0  0
  -39.0677   58.9810   65.5314 C   0  0  0  0  0  0  0  0  0  0  0  0
  -36.0843   61.0360   65.1455 O   0  0  0  0  0  0  0  0  0  0  0  0
  -38.5756   61.2678   66.0539 O   0  0  0  0  0  0  0  0  0  0  0  0
  -35.2013   60.9989   64.8343 H   0  0  0  0  0  0  0  0  0  0  0  0
  -37.9749   61.9866   66.0778 H   0  0  0  0  0  0  0  0  0  0  0  0
 12 13  1  0  0  0
  9 10  2  0  0  0
  9  8  1  0  0  0
  6  7  2  0  0  0
  6  8  1  0  0  0
 10 11  1  0  0  0
  7  5  1  0  0  0
 16 17  2  0  0  0
 16 18  1  0  0  0
 17 19  1  0  0  0
 18 21  2  0  0  0
 13 11  1  0  0  0
  5  4  1  0  0  0
  4  3  1  0  0  0
  3  2  1  0  0  0
  2  1  1  0  0  0
  1 14  1  0  0  0
 14 15  1  0  0  0
 15 21  1  0  0  0
 19 20  2  0  0  0
 19 22  1  0  0  0
 20 21  1  0  0  0
 20 23  1  0  0  0
 22 24  1  0  0  0
 23 25  1  0  0  0
M  END
> <minimizedAffinity>
-8.18594

> <CNNscore>
0.6591627598

> <CNNaffinity>
6.4393320084

> <CNN_VS>
4.2445678711

> <CNNaffinity_variance>
0.2729666829

$$$$



 25 25  0  0  0  0  0  0  0  0999 V2000
  -50.5873   57.5744   61.4256 C   0  0  0  0  0  0  0  0  0  0  0  0
  -51.5569   58.5525   62.1056 C   0  0  0  0  0  0  0  0  0  0  0  0
  -50.8069   59.7764   62.6132 C   0  0  0  0  0  0  0  0  0  0  0  0
  -51.2163   60.0592   64.0590 C   0  0  0  0  0  0  0  0  0  0  0  0
  -50.7595   58.9188   64.9685 C   0  0  0  0  0  0  0  0  0  0  0  0
  -48.2941   58.9112   65.9676 C   0  0  0  0  0  0  0  0  0  0  0  0
  -49.7248   59.4839   65.9432 C   0  0  0  0  0  0  0  0  0  0  0  0
  -47.8877   57.6933   65.1238 C   0  0  0  0  0  0  0  0  0  0  0  0
  -46.6530   58.0996   64.3059 C   0  0  0  0  0  0  0  0  0  0  0  0
  -45.2142   57.8079   64.7953 C   0  0  0  0  0  0  0  0  0  0  0  0
  -44.9409   57.0605   66.1153 C   0  0  0  0  0  0  0  0  0  0  0  0
  -42.6839   58.0197   66.7589 C   0  0  0  0  0  0  0  0  0  0  0  0
  -43.4292   56.8074   66.1955 C   0  0  0  0  0  0  0  0  0  0  0  0
  -49.4012   58.2788   60.7172 C   0  0  0  0  0  0  0  0  0  0  0  0
  -48.1086   57.4289   60.7047 C   0  0  0  0  0  0  0  0  0  0  0  0
  -46.6100   57.6393   57.3186 C   0  0  0  0  0  0  0  0  0  0  0  0
  -46.9235   56.3849   56.7787 C   0  0  0  0  0  0  0  0  0  0  0  0
  -47.0122   57.9708   58.6180 C   0  0  0  0  0  0  0  0  0  0  0  0
  -47.6378   55.4775   57.5609 C   0  0  0  0  0  0  0  0  0  0  0  0
  -48.0284   55.8112   58.8566 C   0  0  0  0  0  0  0  0  0  0  0  0
  -47.6994   57.0514   59.4185 C   0  0  0  0  0  0  0  0  0  0  0  0
  -47.9824   54.2458   57.1117 O   0  0  0  0  0  0  0  0  0  0  0  0
  -48.7188   54.8887   59.5875 O   0  0  0  0  0  0  0  0  0  0  0  0
  -47.7411   53.9781   56.2468 H   0  0  0  0  0  0  0  0  0  0  0  0
  -48.9376   54.0598   59.2094 H   0  0  0  0  0  0  0  0  0  0  0  0
 12 13  1  0  0  0
  9 10  2  0  0  0
  9  8  1  0  0  0
  6  7  2  0  0  0
  6  8  1  0  0  0
 10 11  1  0  0  0
  7  5  1  0  0  0
 16 17  2  0  0  0
 16 18  1  0  0  0
 17 19  1  0  0  0
 18 21  2  0  0  0
 13 11  1  0  0  0
  5  4  1  0  0  0
  4  3  1  0  0  0
  3  2  1  0  0  0
  2  1  1  0  0  0
  1 14  1  0  0  0
 14 15  1  0  0  0
 15 21  1  0  0  0
 19 20  2  0  0  0
 19 22  1  0  0  0
 20 21  1  0  0  0
 20 23  1  0  0  0
 22 24  1  0  0  0
 23 25  1  0  0  0
M  END
> <minimizedAffinity>
-9.11512

> <CNNscore>
0.6142104864

> <CNNaffinity>
7.2049417496

> <CNN_VS>
4.4253506660

> <CNNaffinity_variance>
0.5439915657

$$$$



 25 25  0  0  0  0  0  0  0  0999 V2000
  -41.6962   59.2504   65.9165 C   0  0  0  0  0  0  0  0  0  0  0  0
  -42.6592   58.5454   66.8834 C   0  0  0  0  0  0  0  0  0  0  0  0
  -43.2756   57.3214   66.2201 C   0  0  0  0  0  0  0  0  0  0  0  0
  -44.7999   57.4234   66.2831 C   0  0  0  0  0  0  0  0  0  0  0  0
  -45.3305   58.1521   65.0486 C   0  0  0  0  0  0  0  0  0  0  0  0
  -47.3927   59.5963   65.9075 C   0  0  0  0  0  0  0  0  0  0  0  0
  -45.9077   59.4920   65.5086 C   0  0  0  0  0  0  0  0  0  0  0  0
  -48.3663   58.4188   65.7456 C   0  0  0  0  0  0  0  0  0  0  0  0
  -49.7884   58.9968   65.7885 C   0  0  0  0  0  0  0  0  0  0  0  0
  -50.7014   59.0190   64.5392 C   0  0  0  0  0  0  0  0  0  0  0  0
  -50.2466   58.4291   63.1899 C   0  0  0  0  0  0  0  0  0  0  0  0
  -51.3540   57.4806   61.1157 C   0  0  0  0  0  0  0  0  0  0  0  0
  -51.4290   58.5401   62.2178 C   0  0  0  0  0  0  0  0  0  0  0  0
  -40.7627   58.2719   65.1576 C   0  0  0  0  0  0  0  0  0  0  0  0
  -39.4610   58.9396   64.6545 C   0  0  0  0  0  0  0  0  0  0  0  0
  -38.0284   57.0863   61.7791 C   0  0  0  0  0  0  0  0  0  0  0  0
  -38.3625   57.9137   60.6988 C   0  0  0  0  0  0  0  0  0  0  0  0
  -38.3961   57.4415   63.0824 C   0  0  0  0  0  0  0  0  0  0  0  0
  -39.0687   59.0903   60.9483 C   0  0  0  0  0  0  0  0  0  0  0  0
  -39.4386   59.4340   62.2475 C   0  0  0  0  0  0  0  0  0  0  0  0
  -39.1340   58.6037   63.3338 C   0  0  0  0  0  0  0  0  0  0  0  0
  -39.4274   59.9452   59.9593 O   0  0  0  0  0  0  0  0  0  0  0  0
  -40.1354   60.5907   62.4427 O   0  0  0  0  0  0  0  0  0  0  0  0
  -39.2001   59.7551   59.0704 H   0  0  0  0  0  0  0  0  0  0  0  0
  -40.3378   61.1443   61.7144 H   0  0  0  0  0  0  0  0  0  0  0  0
 12 13  1  0  0  0
  9 10  2  0  0  0
  9  8  1  0  0  0
  6  7  2  0  0  0
  6  8  1  0  0  0
 10 11  1  0  0  0
  7  5  1  0  0  0
 16 17  2  0  0  0
 16 18  1  0  0  0
 17 19  1  0  0  0
 18 21  2  0  0  0
 13 11  1  0  0  0
  5  4  1  0  0  0
  4  3  1  0  0  0
  3  2  1  0  0  0
  2  1  1  0  0  0
  1 14  1  0  0  0
 14 15  1  0  0  0
 15 21  1  0  0  0
 19 20  2  0  0  0
 19 22  1  0  0  0
 20 21  1  0  0  0
 20 23  1  0  0  0
 22 24  1  0  0  0
 23 25  1  0  0  0
M  END
> <minimizedAffinity>
-8.76196

> <CNNscore>
0.5973016620

> <CNNaffinity>
6.2800645828

> <CNN_VS>
3.7510929108

> <CNNaffinity_variance>
0.3146623075

$$$$
