


 21 20  0  0  0  0  0  0  0  0999 V2000
  -47.2107   58.9729   64.9162 C   0  0  0  0  0  0  0  0  0  0  0  0
  -48.4692   59.5421   65.5229 C   0  0  0  0  0  0  0  0  0  0  0  0
  -49.7826   59.0975   65.0368 C   0  0  0  0  0  0  0  0  0  0  0  0
  -50.8723   60.1072   64.7532 C   0  0  0  0  0  0  0  0  0  0  0  0
  -51.5573   59.7870   63.4251 C   0  0  0  0  0  0  0  0  0  0  0  0
  -50.8979   58.6355   62.6707 C   0  0  0  0  0  0  0  0  0  0  0  0
  -50.0164   59.1430   61.5264 C   0  0  0  0  0  0  0  0  0  0  0  0
  -48.8699   58.2048   61.1302 C   0  0  0  0  0  0  0  0  0  0  0  0
  -48.7712   58.0212   59.6100 C   0  0  0  0  0  0  0  0  0  0  0  0
  -47.3914   57.5313   59.1630 C   0  0  0  0  0  0  0  0  0  0  0  0
  -46.8166   58.3239   57.9828 C   0  0  0  0  0  0  0  0  0  0  0  0
  -46.3300   58.4899   66.0573 C   0  0  0  0  0  0  0  0  0  0  0  0
  -45.3704   57.4024   65.6082 C   0  0  0  0  0  0  0  0  0  0  0  0
  -44.4290   57.9137   64.5219 C   0  0  0  0  0  0  0  0  0  0  0  0
  -42.9854   57.8341   64.9986 C   0  0  0  0  0  0  0  0  0  0  0  0
  -42.2193   59.0938   64.6266 C   0  0  0  0  0  0  0  0  0  0  0  0
  -41.1860   59.4438   65.6925 C   0  0  0  0  0  0  0  0  0  0  0  0
  -40.6059   60.8159   65.4101 C   0  0  0  0  0  0  0  0  0  0  0  0
  -41.2352   61.6306   64.6878 O   0  0  0  0  0  0  0  0  0  0  0  0
  -39.4915   61.1473   65.8912 O   0  0  0  0  0  0  0  0  0  0  0  0
  -39.0164   60.5459   66.4303 H   0  0  0  0  0  0  0  0  0  0  0  0
 18 19  2  0  0  0
 18 17  1  0  0  0
 18 20  1  0  0  0
 17 16  1  0  0  0
 16 15  1  0  0  0
 15 14  1  0  0  0
 14 13  1  0  0  0
 13 12  1  0  0  0
 12  1  1  0  0  0
  1  2  1  0  0  0
  2  3  1  0  0  0
  3  4  1  0  0  0
  4  5  1  0  0  0
  5  6  1  0  0  0
  6  7  1  0  0  0
  7  8  1  0  0  0
  8  9  1  0  0  0
  9 10  1  0  0  0
 10 11  1  0  0  0
 20 21  1  0  0  0
M  END
> <minimizedAffinity>
-7.22912

> <CNNscore>
0.9110326767

> <CNNaffinity>
6.8835053444

> <CNN_VS>
6.2710981369

> <CNNaffinity_variance>
0.2612220347

$$$$



 21 20  0  0  0  0  0  0  0  0999 V2000
  -46.7801   58.5000   64.6154 C   0  0  0  0  0  0  0  0  0  0  0  0
  -47.8883   59.5231   64.6479 C   0  0  0  0  0  0  0  0  0  0  0  0
  -48.7550   59.7015   63.4749 C   0  0  0  0  0  0  0  0  0  0  0  0
  -49.2210   58.5011   62.6816 C   0  0  0  0  0  0  0  0  0  0  0  0
  -49.5889   58.9183   61.2582 C   0  0  0  0  0  0  0  0  0  0  0  0
  -50.0398   57.7494   60.3865 C   0  0  0  0  0  0  0  0  0  0  0  0
  -49.2395   57.6766   59.0833 C   0  0  0  0  0  0  0  0  0  0  0  0
  -47.7164   57.7091   59.2587 C   0  0  0  0  0  0  0  0  0  0  0  0
  -46.9926   58.0999   57.9634 C   0  0  0  0  0  0  0  0  0  0  0  0
  -47.4628   57.2851   56.7556 C   0  0  0  0  0  0  0  0  0  0  0  0
  -47.0025   55.8227   56.7910 C   0  0  0  0  0  0  0  0  0  0  0  0
  -46.8437   57.7144   65.9153 C   0  0  0  0  0  0  0  0  0  0  0  0
  -45.5316   57.7760   66.6767 C   0  0  0  0  0  0  0  0  0  0  0  0
  -44.3509   57.4570   65.7646 C   0  0  0  0  0  0  0  0  0  0  0  0
  -43.0615   57.4093   66.5726 C   0  0  0  0  0  0  0  0  0  0  0  0
  -42.2268   58.6587   66.3396 C   0  0  0  0  0  0  0  0  0  0  0  0
  -41.0585   58.3724   65.4017 C   0  0  0  0  0  0  0  0  0  0  0  0
  -41.2213   59.1730   64.1243 C   0  0  0  0  0  0  0  0  0  0  0  0
  -40.2182   59.4384   63.4138 O   0  0  0  0  0  0  0  0  0  0  0  0
  -42.3574   59.5806   63.7689 O   0  0  0  0  0  0  0  0  0  0  0  0
  -43.1097   59.3870   64.2929 H   0  0  0  0  0  0  0  0  0  0  0  0
 18 19  2  0  0  0
 18 17  1  0  0  0
 18 20  1  0  0  0
 17 16  1  0  0  0
 16 15  1  0  0  0
 15 14  1  0  0  0
 14 13  1  0  0  0
 13 12  1  0  0  0
 12  1  1  0  0  0
  1  2  1  0  0  0
  2  3  1  0  0  0
  3  4  1  0  0  0
  4  5  1  0  0  0
  5  6  1  0  0  0
  6  7  1  0  0  0
  7  8  1  0  0  0
  8  9  1  0  0  0
  9 10  1  0  0  0
 10 11  1  0  0  0
 20 21  1  0  0  0
M  END
> <minimizedAffinity>
-6.93639

> <CNNscore>
0.8207462430

> <CNNaffinity>
6.3919782639

> <CNN_VS>
5.2461919785

> <CNNaffinity_variance>
0.0434199274

$$$$



 21 20  0  0  0  0  0  0  0  0999 V2000
  -46.5665   58.2367   64.9115 C   0  0  0  0  0  0  0  0  0  0  0  0
  -47.8331   59.0523   64.8329 C   0  0  0  0  0  0  0  0  0  0  0  0
  -48.7344   59.1188   65.9914 C   0  0  0  0  0  0  0  0  0  0  0  0
  -50.2334   59.1418   65.7909 C   0  0  0  0  0  0  0  0  0  0  0  0
  -50.6504   60.4211   65.0664 C   0  0  0  0  0  0  0  0  0  0  0  0
  -51.5407   60.1624   63.8538 C   0  0  0  0  0  0  0  0  0  0  0  0
  -50.7440   59.5785   62.6841 C   0  0  0  0  0  0  0  0  0  0  0  0
  -51.0554   58.1125   62.3593 C   0  0  0  0  0  0  0  0  0  0  0  0
  -50.5711   57.7142   60.9588 C   0  0  0  0  0  0  0  0  0  0  0  0
  -49.4892   58.6533   60.4192 C   0  0  0  0  0  0  0  0  0  0  0  0
  -48.3118   57.9163   59.7694 C   0  0  0  0  0  0  0  0  0  0  0  0
  -46.0520   58.3262   66.3391 C   0  0  0  0  0  0  0  0  0  0  0  0
  -44.6351   57.7947   66.4629 C   0  0  0  0  0  0  0  0  0  0  0  0
  -44.0120   57.5648   65.0893 C   0  0  0  0  0  0  0  0  0  0  0  0
  -42.9020   58.5765   64.8408 C   0  0  0  0  0  0  0  0  0  0  0  0
  -42.0118   58.7195   66.0652 C   0  0  0  0  0  0  0  0  0  0  0  0
  -40.6144   59.1915   65.6770 C   0  0  0  0  0  0  0  0  0  0  0  0
  -40.6428   60.6772   65.3754 C   0  0  0  0  0  0  0  0  0  0  0  0
  -40.9273   61.5000   66.2830 O   0  0  0  0  0  0  0  0  0  0  0  0
  -40.3874   61.0967   64.2170 O   0  0  0  0  0  0  0  0  0  0  0  0
  -40.1746   60.4900   63.5354 H   0  0  0  0  0  0  0  0  0  0  0  0
 18 19  2  0  0  0
 18 17  1  0  0  0
 18 20  1  0  0  0
 17 16  1  0  0  0
 16 15  1  0  0  0
 15 14  1  0  0  0
 14 13  1  0  0  0
 13 12  1  0  0  0
 12  1  1  0  0  0
  1  2  1  0  0  0
  2  3  1  0  0  0
  3  4  1  0  0  0
  4  5  1  0  0  0
  5  6  1  0  0  0
  6  7  1  0  0  0
  7  8  1  0  0  0
  8  9  1  0  0  0
  9 10  1  0  0  0
 10 11  1  0  0  0
 20 21  1  0  0  0
M  END
> <minimizedAffinity>
-7.17240

> <CNNscore>
0.8041285872

> <CNNaffinity>
6.6204056740

> <CNN_VS>
5.3236575127

> <CNNaffinity_variance>
0.2102747858

$$$$



 21 20  0  0  0  0  0  0  0  0999 V2000
  -49.1200   58.8580   66.0843 C   0  0  0  0  0  0  0  0  0  0  0  0
  -50.0673   58.8095   64.9112 C   0  0  0  0  0  0  0  0  0  0  0  0
  -50.0603   59.8931   63.9189 C   0  0  0  0  0  0  0  0  0  0  0  0
  -50.5128   59.6303   62.4999 C   0  0  0  0  0  0  0  0  0  0  0  0
  -51.0351   58.2002   62.3676 C   0  0  0  0  0  0  0  0  0  0  0  0
  -50.4005   57.4329   61.2107 C   0  0  0  0  0  0  0  0  0  0  0  0
  -49.5159   58.3397   60.3509 C   0  0  0  0  0  0  0  0  0  0  0  0
  -48.9182   57.6682   59.1086 C   0  0  0  0  0  0  0  0  0  0  0  0
  -47.5559   58.2629   58.7278 C   0  0  0  0  0  0  0  0  0  0  0  0
  -46.7893   57.3908   57.7301 C   0  0  0  0  0  0  0  0  0  0  0  0
  -47.5621   57.1274   56.4320 C   0  0  0  0  0  0  0  0  0  0  0  0
  -47.8476   58.1333   65.6757 C   0  0  0  0  0  0  0  0  0  0  0  0
  -46.8644   58.0262   66.8277 C   0  0  0  0  0  0  0  0  0  0  0  0
  -45.4566   57.7243   66.3229 C   0  0  0  0  0  0  0  0  0  0  0  0
  -45.3378   58.0897   64.8498 C   0  0  0  0  0  0  0  0  0  0  0  0
  -44.0073   57.6245   64.2794 C   0  0  0  0  0  0  0  0  0  0  0  0
  -43.3415   56.6050   65.1980 C   0  0  0  0  0  0  0  0  0  0  0  0
  -41.9527   56.2830   64.6817 C   0  0  0  0  0  0  0  0  0  0  0  0
  -41.1379   57.2105   64.4418 O   0  0  0  0  0  0  0  0  0  0  0  0
  -41.6074   55.0891   64.4856 O   0  0  0  0  0  0  0  0  0  0  0  0
  -42.2087   54.3925   64.6620 H   0  0  0  0  0  0  0  0  0  0  0  0
 18 19  2  0  0  0
 18 17  1  0  0  0
 18 20  1  0  0  0
 17 16  1  0  0  0
 16 15  1  0  0  0
 15 14  1  0  0  0
 14 13  1  0  0  0
 13 12  1  0  0  0
 12  1  1  0  0  0
  1  2  1  0  0  0
  2  3  1  0  0  0
  3  4  1  0  0  0
  4  5  1  0  0  0
  5  6  1  0  0  0
  6  7  1  0  0  0
  7  8  1  0  0  0
  8  9  1  0  0  0
  9 10  1  0  0  0
 10 11  1  0  0  0
 20 21  1  0  0  0
M  END
> <minimizedAffinity>
-7.36794

> <CNNscore>
0.8032354712

> <CNNaffinity>
6.8455414772

> <CNN_VS>
5.4985818863

> <CNNaffinity_variance>
0.3565466702

$$$$



 21 20  0  0  0  0  0  0  0  0999 V2000
  -49.8899   58.5870   65.4833 C   0  0  0  0  0  0  0  0  0  0  0  0
  -50.8695   59.6839   65.1470 C   0  0  0  0  0  0  0  0  0  0  0  0
  -51.3159   59.8669   63.7591 C   0  0  0  0  0  0  0  0  0  0  0  0
  -50.4761   59.3479   62.6133 C   0  0  0  0  0  0  0  0  0  0  0  0
  -50.9988   57.9895   62.1475 C   0  0  0  0  0  0  0  0  0  0  0  0
  -50.3228   57.4898   60.8735 C   0  0  0  0  0  0  0  0  0  0  0  0
  -49.0254   58.2510   60.5881 C   0  0  0  0  0  0  0  0  0  0  0  0
  -48.0019   57.4864   59.7400 C   0  0  0  0  0  0  0  0  0  0  0  0
  -47.4513   58.3388   58.5890 C   0  0  0  0  0  0  0  0  0  0  0  0
  -46.6652   57.5135   57.5670 C   0  0  0  0  0  0  0  0  0  0  0  0
  -47.5065   57.0738   56.3626 C   0  0  0  0  0  0  0  0  0  0  0  0
  -48.8218   59.1870   66.3833 C   0  0  0  0  0  0  0  0  0  0  0  0
  -47.5058   58.4377   66.2743 C   0  0  0  0  0  0  0  0  0  0  0  0
  -47.0258   58.3766   64.8273 C   0  0  0  0  0  0  0  0  0  0  0  0
  -45.5052   58.3218   64.7808 C   0  0  0  0  0  0  0  0  0  0  0  0
  -44.9425   57.7300   66.0635 C   0  0  0  0  0  0  0  0  0  0  0  0
  -43.6009   57.0491   65.8126 C   0  0  0  0  0  0  0  0  0  0  0  0
  -42.5745   58.0829   65.3919 C   0  0  0  0  0  0  0  0  0  0  0  0
  -42.2432   59.0018   66.1841 O   0  0  0  0  0  0  0  0  0  0  0  0
  -42.0515   58.0322   64.2487 O   0  0  0  0  0  0  0  0  0  0  0  0
  -42.2931   57.3507   63.6528 H   0  0  0  0  0  0  0  0  0  0  0  0
 18 19  2  0  0  0
 18 17  1  0  0  0
 18 20  1  0  0  0
 17 16  1  0  0  0
 16 15  1  0  0  0
 15 14  1  0  0  0
 14 13  1  0  0  0
 13 12  1  0  0  0
 12  1  1  0  0  0
  1  2  1  0  0  0
  2  3  1  0  0  0
  3  4  1  0  0  0
  4  5  1  0  0  0
  5  6  1  0  0  0
  6  7  1  0  0  0
  7  8  1  0  0  0
  8  9  1  0  0  0
  9 10  1  0  0  0
 10 11  1  0  0  0
 20 21  1  0  0  0
M  END
> <minimizedAffinity>
-7.28202

> <CNNscore>
0.8030074835

> <CNNaffinity>
6.7613401413

> <CNN_VS>
5.4294066429

> <CNNaffinity_variance>
0.2135213614

$$$$



 21 20  0  0  0  0  0  0  0  0999 V2000
  -50.1644   58.2267   62.3734 C   0  0  0  0  0  0  0  0  0  0  0  0
  -51.1125   59.2673   62.9158 C   0  0  0  0  0  0  0  0  0  0  0  0
  -51.0226   59.6768   64.3241 C   0  0  0  0  0  0  0  0  0  0  0  0
  -50.4841   58.7194   65.3636 C   0  0  0  0  0  0  0  0  0  0  0  0
  -49.2944   59.3438   66.0919 C   0  0  0  0  0  0  0  0  0  0  0  0
  -47.9655   58.6700   65.7606 C   0  0  0  0  0  0  0  0  0  0  0  0
  -47.0112   58.6870   66.9577 C   0  0  0  0  0  0  0  0  0  0  0  0
  -45.7288   57.8668   66.7724 C   0  0  0  0  0  0  0  0  0  0  0  0
  -45.4044   57.6260   65.2921 C   0  0  0  0  0  0  0  0  0  0  0  0
  -43.9430   57.2308   65.0648 C   0  0  0  0  0  0  0  0  0  0  0  0
  -43.0952   57.2721   66.3420 C   0  0  0  0  0  0  0  0  0  0  0  0
  -50.8484   57.5543   61.1940 C   0  0  0  0  0  0  0  0  0  0  0  0
  -50.1184   57.8227   59.8901 C   0  0  0  0  0  0  0  0  0  0  0  0
  -48.7097   58.3497   60.1467 C   0  0  0  0  0  0  0  0  0  0  0  0
  -47.6949   57.5466   59.3450 C   0  0  0  0  0  0  0  0  0  0  0  0
  -47.1473   58.3643   58.1858 C   0  0  0  0  0  0  0  0  0  0  0  0
  -46.3764   57.4838   57.2077 C   0  0  0  0  0  0  0  0  0  0  0  0
  -47.2746   56.3696   56.7067 C   0  0  0  0  0  0  0  0  0  0  0  0
  -47.0408   55.1770   57.0300 O   0  0  0  0  0  0  0  0  0  0  0  0
  -48.2552   56.6286   55.9621 O   0  0  0  0  0  0  0  0  0  0  0  0
  -48.4360   57.5147   55.7167 H   0  0  0  0  0  0  0  0  0  0  0  0
 18 19  2  0  0  0
 18 17  1  0  0  0
 18 20  1  0  0  0
 17 16  1  0  0  0
 16 15  1  0  0  0
 15 14  1  0  0  0
 14 13  1  0  0  0
 13 12  1  0  0  0
 12  1  1  0  0  0
  1  2  1  0  0  0
  2  3  1  0  0  0
  3  4  1  0  0  0
  4  5  1  0  0  0
  5  6  1  0  0  0
  6  7  1  0  0  0
  7  8  1  0  0  0
  8  9  1  0  0  0
  9 10  1  0  0  0
 10 11  1  0  0  0
 20 21  1  0  0  0
M  END
> <minimizedAffinity>
-7.83604

> <CNNscore>
0.7874433994

> <CNNaffinity>
6.8132543564

> <CNN_VS>
5.3650522232

> <CNNaffinity_variance>
0.1640752554

$$$$



 21 20  0  0  0  0  0  0  0  0999 V2000
  -50.2798   60.6149   64.9144 C   0  0  0  0  0  0  0  0  0  0  0  0
  -51.1595   60.0307   63.8370 C   0  0  0  0  0  0  0  0  0  0  0  0
  -50.7863   58.7632   63.1941 C   0  0  0  0  0  0  0  0  0  0  0  0
  -50.2759   58.7517   61.7704 C   0  0  0  0  0  0  0  0  0  0  0  0
  -50.6915   57.4586   61.0701 C   0  0  0  0  0  0  0  0  0  0  0  0
  -49.5529   56.8025   60.2936 C   0  0  0  0  0  0  0  0  0  0  0  0
  -48.8410   57.8056   59.3820 C   0  0  0  0  0  0  0  0  0  0  0  0
  -47.3566   57.5115   59.1339 C   0  0  0  0  0  0  0  0  0  0  0  0
  -46.8752   58.0609   57.7844 C   0  0  0  0  0  0  0  0  0  0  0  0
  -47.3642   57.2252   56.5987 C   0  0  0  0  0  0  0  0  0  0  0  0
  -47.1903   55.7156   56.8045 C   0  0  0  0  0  0  0  0  0  0  0  0
  -48.8352   60.3744   64.5066 C   0  0  0  0  0  0  0  0  0  0  0  0
  -48.0643   59.6227   65.5770 C   0  0  0  0  0  0  0  0  0  0  0  0
  -47.4683   58.3325   65.0217 C   0  0  0  0  0  0  0  0  0  0  0  0
  -47.0491   57.4150   66.1619 C   0  0  0  0  0  0  0  0  0  0  0  0
  -45.5635   57.5546   66.4546 C   0  0  0  0  0  0  0  0  0  0  0  0
  -44.7549   57.6431   65.1643 C   0  0  0  0  0  0  0  0  0  0  0  0
  -43.4744   56.8439   65.3086 C   0  0  0  0  0  0  0  0  0  0  0  0
  -42.4886   57.3357   65.9151 O   0  0  0  0  0  0  0  0  0  0  0  0
  -43.3871   55.6877   64.8199 O   0  0  0  0  0  0  0  0  0  0  0  0
  -44.1172   55.3143   64.3666 H   0  0  0  0  0  0  0  0  0  0  0  0
 18 19  2  0  0  0
 18 17  1  0  0  0
 18 20  1  0  0  0
 17 16  1  0  0  0
 16 15  1  0  0  0
 15 14  1  0  0  0
 14 13  1  0  0  0
 13 12  1  0  0  0
 12  1  1  0  0  0
  1  2  1  0  0  0
  2  3  1  0  0  0
  3  4  1  0  0  0
  4  5  1  0  0  0
  5  6  1  0  0  0
  6  7  1  0  0  0
  7  8  1  0  0  0
  8  9  1  0  0  0
  9 10  1  0  0  0
 10 11  1  0  0  0
 20 21  1  0  0  0
M  END
> <minimizedAffinity>
-7.89767

> <CNNscore>
0.7356693745

> <CNNaffinity>
6.6634125710

> <CNN_VS>
4.9020686150

> <CNNaffinity_variance>
0.2164780796

$$$$



 21 20  0  0  0  0  0  0  0  0999 V2000
  -46.1194   57.4388   65.8491 C   0  0  0  0  0  0  0  0  0  0  0  0
  -47.0498   58.6264   65.8520 C   0  0  0  0  0  0  0  0  0  0  0  0
  -47.4290   59.2627   64.5830 C   0  0  0  0  0  0  0  0  0  0  0  0
  -48.4898   58.6385   63.7042 C   0  0  0  0  0  0  0  0  0  0  0  0
  -49.4409   59.7132   63.1788 C   0  0  0  0  0  0  0  0  0  0  0  0
  -49.7564   59.5628   61.6930 C   0  0  0  0  0  0  0  0  0  0  0  0
  -50.3568   58.1896   61.3805 C   0  0  0  0  0  0  0  0  0  0  0  0
  -49.5434   57.3381   60.3982 C   0  0  0  0  0  0  0  0  0  0  0  0
  -48.6511   58.1949   59.4905 C   0  0  0  0  0  0  0  0  0  0  0  0
  -47.3166   57.5185   59.1662 C   0  0  0  0  0  0  0  0  0  0  0  0
  -46.6145   58.1132   57.9394 C   0  0  0  0  0  0  0  0  0  0  0  0
  -44.8247   57.8729   65.1812 C   0  0  0  0  0  0  0  0  0  0  0  0
  -43.8798   56.7037   64.9682 C   0  0  0  0  0  0  0  0  0  0  0  0
  -42.8975   56.9895   63.8363 C   0  0  0  0  0  0  0  0  0  0  0  0
  -41.5503   56.3472   64.1362 C   0  0  0  0  0  0  0  0  0  0  0  0
  -40.4083   57.2832   63.7728 C   0  0  0  0  0  0  0  0  0  0  0  0
  -40.6205   57.9000   62.3940 C   0  0  0  0  0  0  0  0  0  0  0  0
  -39.3521   57.7662   61.5742 C   0  0  0  0  0  0  0  0  0  0  0  0
  -38.4399   56.9843   61.9460 O   0  0  0  0  0  0  0  0  0  0  0  0
  -39.2009   58.4378   60.5210 O   0  0  0  0  0  0  0  0  0  0  0  0
  -39.8759   59.0225   60.2373 H   0  0  0  0  0  0  0  0  0  0  0  0
 18 19  2  0  0  0
 18 17  1  0  0  0
 18 20  1  0  0  0
 17 16  1  0  0  0
 16 15  1  0  0  0
 15 14  1  0  0  0
 14 13  1  0  0  0
 13 12  1  0  0  0
 12  1  1  0  0  0
  1  2  1  0  0  0
  2  3  1  0  0  0
  3  4  1  0  0  0
  4  5  1  0  0  0
  5  6  1  0  0  0
  6  7  1  0  0  0
  7  8  1  0  0  0
  8  9  1  0  0  0
  9 10  1  0  0  0
 10 11  1  0  0  0
 20 21  1  0  0  0
M  END
> <minimizedAffinity>
-6.66230

> <CNNscore>
0.7183008790

> <CNNaffinity>
6.4596114159

> <CNN_VS>
4.6399445534

> <CNNaffinity_variance>
0.1954907328

$$$$



 21 20  0  0  0  0  0  0  0  0999 V2000
  -51.1214   59.7117   62.9678 C   0  0  0  0  0  0  0  0  0  0  0  0
  -50.7271   59.7841   64.4222 C   0  0  0  0  0  0  0  0  0  0  0  0
  -49.6356   60.6738   64.8416 C   0  0  0  0  0  0  0  0  0  0  0  0
  -48.2228   60.4258   64.3620 C   0  0  0  0  0  0  0  0  0  0  0  0
  -47.8005   58.9919   64.6799 C   0  0  0  0  0  0  0  0  0  0  0  0
  -47.3401   58.8066   66.1233 C   0  0  0  0  0  0  0  0  0  0  0  0
  -46.0284   58.0206   66.1999 C   0  0  0  0  0  0  0  0  0  0  0  0
  -45.1945   58.0298   64.9131 C   0  0  0  0  0  0  0  0  0  0  0  0
  -43.8568   57.2980   65.0848 C   0  0  0  0  0  0  0  0  0  0  0  0
  -43.3296   57.3611   66.5206 C   0  0  0  0  0  0  0  0  0  0  0  0
  -42.4013   58.5546   66.7767 C   0  0  0  0  0  0  0  0  0  0  0  0
  -50.8261   58.3016   62.4829 C   0  0  0  0  0  0  0  0  0  0  0  0
  -49.6109   58.2603   61.5736 C   0  0  0  0  0  0  0  0  0  0  0  0
  -49.8319   57.3069   60.4031 C   0  0  0  0  0  0  0  0  0  0  0  0
  -49.0116   57.7532   59.2009 C   0  0  0  0  0  0  0  0  0  0  0  0
  -47.5986   57.1955   59.2689 C   0  0  0  0  0  0  0  0  0  0  0  0
  -46.7712   57.6465   58.0696 C   0  0  0  0  0  0  0  0  0  0  0  0
  -47.1257   56.8048   56.8592 C   0  0  0  0  0  0  0  0  0  0  0  0
  -47.8481   57.2832   55.9476 O   0  0  0  0  0  0  0  0  0  0  0  0
  -46.7048   55.6232   56.7602 O   0  0  0  0  0  0  0  0  0  0  0  0
  -46.1662   55.2596   57.4351 H   0  0  0  0  0  0  0  0  0  0  0  0
 18 19  2  0  0  0
 18 17  1  0  0  0
 18 20  1  0  0  0
 17 16  1  0  0  0
 16 15  1  0  0  0
 15 14  1  0  0  0
 14 13  1  0  0  0
 13 12  1  0  0  0
 12  1  1  0  0  0
  1  2  1  0  0  0
  2  3  1  0  0  0
  3  4  1  0  0  0
  4  5  1  0  0  0
  5  6  1  0  0  0
  6  7  1  0  0  0
  7  8  1  0  0  0
  8  9  1  0  0  0
  9 10  1  0  0  0
 10 11  1  0  0  0
 20 21  1  0  0  0
M  END
> <minimizedAffinity>
-7.46195

> <CNNscore>
0.7047982216

> <CNNaffinity>
6.5965180397

> <CNN_VS>
4.6492142677

> <CNNaffinity_variance>
0.1269390434

$$$$
