


 21 20  0  0  0  0  0  0  0  0999 V2000
  -45.0905   58.7514   66.4144 C   0  0  0  0  0  0  0  0  0  0  0  0
  -46.5725   58.6731   66.1434 C   0  0  0  0  0  0  0  0  0  0  0  0
  -47.2825   57.3986   66.3177 C   0  0  0  0  0  0  0  0  0  0  0  0
  -48.7721   57.3155   66.0696 C   0  0  0  0  0  0  0  0  0  0  0  0
  -49.1756   58.2724   64.9485 C   0  0  0  0  0  0  0  0  0  0  0  0
  -50.6104   58.7772   65.0760 C   0  0  0  0  0  0  0  0  0  0  0  0
  -50.8383   60.0434   64.2460 C   0  0  0  0  0  0  0  0  0  0  0  0
  -51.6275   59.8310   62.9484 C   0  0  0  0  0  0  0  0  0  0  0  0
  -50.7778   59.1686   61.8558 C   0  0  0  0  0  0  0  0  0  0  0  0
  -51.2582   57.7569   61.5093 C   0  0  0  0  0  0  0  0  0  0  0  0
  -50.4229   57.0807   60.4154 C   0  0  0  0  0  0  0  0  0  0  0  0
  -44.5504   57.3305   66.4212 C   0  0  0  0  0  0  0  0  0  0  0  0
  -43.0811   57.2833   66.0412 C   0  0  0  0  0  0  0  0  0  0  0  0
  -42.5513   58.6774   65.7193 C   0  0  0  0  0  0  0  0  0  0  0  0
  -41.0776   58.6049   65.3444 C   0  0  0  0  0  0  0  0  0  0  0  0
  -40.2870   59.7088   66.0290 C   0  0  0  0  0  0  0  0  0  0  0  0
  -38.7945   59.5729   65.7457 C   0  0  0  0  0  0  0  0  0  0  0  0
  -38.1826   60.9480   65.5617 C   0  0  0  0  0  0  0  0  0  0  0  0
  -38.1321   61.4684   64.4179 O   0  0  0  0  0  0  0  0  0  0  0  0
  -37.7177   61.5751   66.5485 O   0  0  0  0  0  0  0  0  0  0  0  0
  -37.7515   61.1941   67.4039 H   0  0  0  0  0  0  0  0  0  0  0  0
 18 19  2  0  0  0
 18 17  1  0  0  0
 18 20  1  0  0  0
 17 16  1  0  0  0
 16 15  1  0  0  0
 15 14  1  0  0  0
 14 13  1  0  0  0
 13 12  1  0  0  0
 12  1  1  0  0  0
  1  2  1  0  0  0
  2  3  1  0  0  0
  3  4  1  0  0  0
  4  5  1  0  0  0
  5  6  1  0  0  0
  6  7  1  0  0  0
  7  8  1  0  0  0
  8  9  1  0  0  0
  9 10  1  0  0  0
 10 11  1  0  0  0
 20 21  1  0  0  0
M  END
> <minimizedAffinity>
-6.86175

> <CNNscore>
0.9264826179

> <CNNaffinity>
6.7306318283

> <CNN_VS>
6.2358136177

> <CNNaffinity_variance>
0.4322311878

$$$$



 21 20  0  0  0  0  0  0  0  0999 V2000
  -46.8624   57.0853   67.0799 C   0  0  0  0  0  0  0  0  0  0  0  0
  -47.9056   56.6578   66.0775 C   0  0  0  0  0  0  0  0  0  0  0  0
  -48.5968   57.6675   65.2641 C   0  0  0  0  0  0  0  0  0  0  0  0
  -49.5663   58.6328   65.9090 C   0  0  0  0  0  0  0  0  0  0  0  0
  -50.6633   59.0213   64.9184 C   0  0  0  0  0  0  0  0  0  0  0  0
  -50.1962   59.0013   63.4655 C   0  0  0  0  0  0  0  0  0  0  0  0
  -51.2831   58.4624   62.5314 C   0  0  0  0  0  0  0  0  0  0  0  0
  -50.7655   57.6339   61.3494 C   0  0  0  0  0  0  0  0  0  0  0  0
  -49.2347   57.6633   61.2479 C   0  0  0  0  0  0  0  0  0  0  0  0
  -48.7299   57.3296   59.8417 C   0  0  0  0  0  0  0  0  0  0  0  0
  -48.5972   55.8237   59.5837 C   0  0  0  0  0  0  0  0  0  0  0  0
  -45.5765   57.3558   66.3156 C   0  0  0  0  0  0  0  0  0  0  0  0
  -45.1526   58.8100   66.4208 C   0  0  0  0  0  0  0  0  0  0  0  0
  -43.6755   58.9274   66.7843 C   0  0  0  0  0  0  0  0  0  0  0  0
  -42.8678   57.8690   66.0462 C   0  0  0  0  0  0  0  0  0  0  0  0
  -41.4678   58.3731   65.7330 C   0  0  0  0  0  0  0  0  0  0  0  0
  -41.4297   59.8971   65.6873 C   0  0  0  0  0  0  0  0  0  0  0  0
  -40.8557   60.3538   64.3602 C   0  0  0  0  0  0  0  0  0  0  0  0
  -41.5031   60.1736   63.2972 O   0  0  0  0  0  0  0  0  0  0  0  0
  -39.7285   60.9108   64.3120 O   0  0  0  0  0  0  0  0  0  0  0  0
  -39.2400   61.0486   65.0996 H   0  0  0  0  0  0  0  0  0  0  0  0
 18 19  2  0  0  0
 18 17  1  0  0  0
 18 20  1  0  0  0
 17 16  1  0  0  0
 16 15  1  0  0  0
 15 14  1  0  0  0
 14 13  1  0  0  0
 13 12  1  0  0  0
 12  1  1  0  0  0
  1  2  1  0  0  0
  2  3  1  0  0  0
  3  4  1  0  0  0
  4  5  1  0  0  0
  5  6  1  0  0  0
  6  7  1  0  0  0
  7  8  1  0  0  0
  8  9  1  0  0  0
  9 10  1  0  0  0
 10 11  1  0  0  0
 20 21  1  0  0  0
M  END
> <minimizedAffinity>
-6.72149

> <CNNscore>
0.9169371128

> <CNNaffinity>
6.9703469276

> <CNN_VS>
6.3913698196

> <CNNaffinity_variance>
0.6461360455

$$$$



 21 20  0  0  0  0  0  0  0  0999 V2000
  -47.5030   60.0034   65.3517 C   0  0  0  0  0  0  0  0  0  0  0  0
  -48.4237   59.2282   64.4421 C   0  0  0  0  0  0  0  0  0  0  0  0
  -49.7937   59.7050   64.2079 C   0  0  0  0  0  0  0  0  0  0  0  0
  -50.8968   58.7237   63.8796 C   0  0  0  0  0  0  0  0  0  0  0  0
  -51.5325   59.0733   62.5346 C   0  0  0  0  0  0  0  0  0  0  0  0
  -51.2987   58.0102   61.4645 C   0  0  0  0  0  0  0  0  0  0  0  0
  -50.0056   58.2685   60.6866 C   0  0  0  0  0  0  0  0  0  0  0  0
  -49.8621   57.4648   59.3885 C   0  0  0  0  0  0  0  0  0  0  0  0
  -48.4252   57.4855   58.8505 C   0  0  0  0  0  0  0  0  0  0  0  0
  -48.1461   56.3447   57.8686 C   0  0  0  0  0  0  0  0  0  0  0  0
  -47.3596   56.7870   56.6287 C   0  0  0  0  0  0  0  0  0  0  0  0
  -46.8808   59.0146   66.3243 C   0  0  0  0  0  0  0  0  0  0  0  0
  -45.9296   58.0589   65.6263 C   0  0  0  0  0  0  0  0  0  0  0  0
  -44.7787   57.6597   66.5449 C   0  0  0  0  0  0  0  0  0  0  0  0
  -43.4448   57.9353   65.8650 C   0  0  0  0  0  0  0  0  0  0  0  0
  -43.4302   59.3198   65.2365 C   0  0  0  0  0  0  0  0  0  0  0  0
  -42.1128   59.5817   64.5139 C   0  0  0  0  0  0  0  0  0  0  0  0
  -41.0203   59.8584   65.5284 C   0  0  0  0  0  0  0  0  0  0  0  0
  -40.1052   59.0164   65.7157 O   0  0  0  0  0  0  0  0  0  0  0  0
  -41.0237   60.9275   66.1919 O   0  0  0  0  0  0  0  0  0  0  0  0
  -41.7021   61.5598   66.0581 H   0  0  0  0  0  0  0  0  0  0  0  0
 18 19  2  0  0  0
 18 17  1  0  0  0
 18 20  1  0  0  0
 17 16  1  0  0  0
 16 15  1  0  0  0
 15 14  1  0  0  0
 14 13  1  0  0  0
 13 12  1  0  0  0
 12  1  1  0  0  0
  1  2  1  0  0  0
  2  3  1  0  0  0
  3  4  1  0  0  0
  4  5  1  0  0  0
  5  6  1  0  0  0
  6  7  1  0  0  0
  7  8  1  0  0  0
  8  9  1  0  0  0
  9 10  1  0  0  0
 10 11  1  0  0  0
 20 21  1  0  0  0
M  END
> <minimizedAffinity>
-6.88286

> <CNNscore>
0.9031116366

> <CNNaffinity>
6.9224586487

> <CNN_VS>
6.2517528534

> <CNNaffinity_variance>
0.6050399542

$$$$



 21 20  0  0  0  0  0  0  0  0999 V2000
  -48.9395   58.3639   65.0728 C   0  0  0  0  0  0  0  0  0  0  0  0
  -50.2864   58.8963   64.6503 C   0  0  0  0  0  0  0  0  0  0  0  0
  -50.3738   59.9058   63.5862 C   0  0  0  0  0  0  0  0  0  0  0  0
  -50.5352   59.4811   62.1437 C   0  0  0  0  0  0  0  0  0  0  0  0
  -51.2373   58.1258   62.0669 C   0  0  0  0  0  0  0  0  0  0  0  0
  -51.0206   57.4109   60.7358 C   0  0  0  0  0  0  0  0  0  0  0  0
  -49.9010   58.0641   59.9210 C   0  0  0  0  0  0  0  0  0  0  0  0
  -49.1732   57.1226   58.9538 C   0  0  0  0  0  0  0  0  0  0  0  0
  -47.7610   57.6184   58.6158 C   0  0  0  0  0  0  0  0  0  0  0  0
  -47.2127   57.0036   57.3254 C   0  0  0  0  0  0  0  0  0  0  0  0
  -47.6247   55.5401   57.1251 C   0  0  0  0  0  0  0  0  0  0  0  0
  -47.9199   59.4693   64.8507 C   0  0  0  0  0  0  0  0  0  0  0  0
  -46.6616   59.2498   65.6715 C   0  0  0  0  0  0  0  0  0  0  0  0
  -45.6752   58.3481   64.9356 C   0  0  0  0  0  0  0  0  0  0  0  0
  -44.2654   58.9116   65.0470 C   0  0  0  0  0  0  0  0  0  0  0  0
  -43.9342   59.2682   66.4876 C   0  0  0  0  0  0  0  0  0  0  0  0
  -42.5909   58.6786   66.9051 C   0  0  0  0  0  0  0  0  0  0  0  0
  -41.4776   59.3303   66.1082 C   0  0  0  0  0  0  0  0  0  0  0  0
  -41.3149   60.5765   66.1540 O   0  0  0  0  0  0  0  0  0  0  0  0
  -40.7132   58.6317   65.3935 O   0  0  0  0  0  0  0  0  0  0  0  0
  -40.8279   57.7026   65.3541 H   0  0  0  0  0  0  0  0  0  0  0  0
 18 19  2  0  0  0
 18 17  1  0  0  0
 18 20  1  0  0  0
 17 16  1  0  0  0
 16 15  1  0  0  0
 15 14  1  0  0  0
 14 13  1  0  0  0
 13 12  1  0  0  0
 12  1  1  0  0  0
  1  2  1  0  0  0
  2  3  1  0  0  0
  3  4  1  0  0  0
  4  5  1  0  0  0
  5  6  1  0  0  0
  6  7  1  0  0  0
  7  8  1  0  0  0
  8  9  1  0  0  0
  9 10  1  0  0  0
 10 11  1  0  0  0
 20 21  1  0  0  0
M  END
> <minimizedAffinity>
-7.32286

> <CNNscore>
0.9008301497

> <CNNaffinity>
6.7405214310

> <CNN_VS>
6.0720648766

> <CNNaffinity_variance>
0.4708361626

$$$$



 21 20  0  0  0  0  0  0  0  0999 V2000
  -46.8434   58.7547   65.1440 C   0  0  0  0  0  0  0  0  0  0  0  0
  -48.1627   58.3155   64.5590 C   0  0  0  0  0  0  0  0  0  0  0  0
  -49.3380   58.1718   65.4290 C   0  0  0  0  0  0  0  0  0  0  0  0
  -50.5971   58.9606   65.1461 C   0  0  0  0  0  0  0  0  0  0  0  0
  -50.4402   59.7615   63.8541 C   0  0  0  0  0  0  0  0  0  0  0  0
  -51.5544   59.4985   62.8445 C   0  0  0  0  0  0  0  0  0  0  0  0
  -51.1944   58.3541   61.8933 C   0  0  0  0  0  0  0  0  0  0  0  0
  -49.9029   58.5620   61.0932 C   0  0  0  0  0  0  0  0  0  0  0  0
  -49.9060   57.7774   59.7745 C   0  0  0  0  0  0  0  0  0  0  0  0
  -48.6328   56.9507   59.5767 C   0  0  0  0  0  0  0  0  0  0  0  0
  -47.6534   57.5715   58.5732 C   0  0  0  0  0  0  0  0  0  0  0  0
  -45.7511   57.9335   64.4782 C   0  0  0  0  0  0  0  0  0  0  0  0
  -44.6081   57.6355   65.4322 C   0  0  0  0  0  0  0  0  0  0  0  0
  -44.1825   58.8898   66.1895 C   0  0  0  0  0  0  0  0  0  0  0  0
  -42.7603   58.7318   66.7090 C   0  0  0  0  0  0  0  0  0  0  0  0
  -41.8482   59.8030   66.1325 C   0  0  0  0  0  0  0  0  0  0  0  0
  -40.7336   59.1838   65.2954 C   0  0  0  0  0  0  0  0  0  0  0  0
  -39.3916   59.7177   65.7571 C   0  0  0  0  0  0  0  0  0  0  0  0
  -39.2704   60.9277   66.0778 O   0  0  0  0  0  0  0  0  0  0  0  0
  -38.3909   58.9575   65.8183 O   0  0  0  0  0  0  0  0  0  0  0  0
  -38.4732   58.0548   65.5810 H   0  0  0  0  0  0  0  0  0  0  0  0
 18 19  2  0  0  0
 18 17  1  0  0  0
 18 20  1  0  0  0
 17 16  1  0  0  0
 16 15  1  0  0  0
 15 14  1  0  0  0
 14 13  1  0  0  0
 13 12  1  0  0  0
 12  1  1  0  0  0
  1  2  1  0  0  0
  2  3  1  0  0  0
  3  4  1  0  0  0
  4  5  1  0  0  0
  5  6  1  0  0  0
  6  7  1  0  0  0
  7  8  1  0  0  0
  8  9  1  0  0  0
  9 10  1  0  0  0
 10 11  1  0  0  0
 20 21  1  0  0  0
M  END
> <minimizedAffinity>
-6.97503

> <CNNscore>
0.8974269629

> <CNNaffinity>
6.8015165329

> <CNN_VS>
6.1038641930

> <CNNaffinity_variance>
0.3835193515

$$$$



 21 20  0  0  0  0  0  0  0  0999 V2000
  -50.4565   59.6748   63.3478 C   0  0  0  0  0  0  0  0  0  0  0  0
  -50.7622   59.2460   64.7615 C   0  0  0  0  0  0  0  0  0  0  0  0
  -49.9408   58.2128   65.4072 C   0  0  0  0  0  0  0  0  0  0  0  0
  -48.4924   58.0323   65.0110 C   0  0  0  0  0  0  0  0  0  0  0  0
  -47.7053   57.3996   66.1580 C   0  0  0  0  0  0  0  0  0  0  0  0
  -46.7033   58.3559   66.7991 C   0  0  0  0  0  0  0  0  0  0  0  0
  -46.1313   59.3415   65.7766 C   0  0  0  0  0  0  0  0  0  0  0  0
  -44.7476   58.9722   65.2284 C   0  0  0  0  0  0  0  0  0  0  0  0
  -43.6242   59.3070   66.2186 C   0  0  0  0  0  0  0  0  0  0  0  0
  -42.7802   58.0846   66.5888 C   0  0  0  0  0  0  0  0  0  0  0  0
  -43.4427   56.7522   66.2182 C   0  0  0  0  0  0  0  0  0  0  0  0
  -51.5701   59.1464   62.4580 C   0  0  0  0  0  0  0  0  0  0  0  0
  -51.1423   57.9051   61.6955 C   0  0  0  0  0  0  0  0  0  0  0  0
  -49.6578   57.9579   61.3471 C   0  0  0  0  0  0  0  0  0  0  0  0
  -49.4706   57.8959   59.8376 C   0  0  0  0  0  0  0  0  0  0  0  0
  -48.3324   56.9575   59.4686 C   0  0  0  0  0  0  0  0  0  0  0  0
  -47.6499   57.4018   58.1789 C   0  0  0  0  0  0  0  0  0  0  0  0
  -47.7650   56.3063   57.1369 C   0  0  0  0  0  0  0  0  0  0  0  0
  -47.6701   55.0993   57.4771 O   0  0  0  0  0  0  0  0  0  0  0  0
  -47.9511   56.5959   55.9267 O   0  0  0  0  0  0  0  0  0  0  0  0
  -48.0228   57.4928   55.6652 H   0  0  0  0  0  0  0  0  0  0  0  0
 18 19  2  0  0  0
 18 17  1  0  0  0
 18 20  1  0  0  0
 17 16  1  0  0  0
 16 15  1  0  0  0
 15 14  1  0  0  0
 14 13  1  0  0  0
 13 12  1  0  0  0
 12  1  1  0  0  0
  1  2  1  0  0  0
  2  3  1  0  0  0
  3  4  1  0  0  0
  4  5  1  0  0  0
  5  6  1  0  0  0
  6  7  1  0  0  0
  7  8  1  0  0  0
  8  9  1  0  0  0
  9 10  1  0  0  0
 10 11  1  0  0  0
 20 21  1  0  0  0
M  END
> <minimizedAffinity>
-7.41516

> <CNNscore>
0.8686299920

> <CNNaffinity>
6.8297662735

> <CNN_VS>
5.9325399399

> <CNNaffinity_variance>
0.4874424934

$$$$



 21 20  0  0  0  0  0  0  0  0999 V2000
  -50.5937   58.7378   65.5124 C   0  0  0  0  0  0  0  0  0  0  0  0
  -50.9020   59.7493   64.4365 C   0  0  0  0  0  0  0  0  0  0  0  0
  -51.3001   59.2953   63.0969 C   0  0  0  0  0  0  0  0  0  0  0  0
  -50.6373   58.0875   62.4730 C   0  0  0  0  0  0  0  0  0  0  0  0
  -51.3623   57.6917   61.1872 C   0  0  0  0  0  0  0  0  0  0  0  0
  -50.4383   57.6167   59.9746 C   0  0  0  0  0  0  0  0  0  0  0  0
  -49.4823   56.4245   60.0674 C   0  0  0  0  0  0  0  0  0  0  0  0
  -48.0959   56.6599   59.4558 C   0  0  0  0  0  0  0  0  0  0  0  0
  -47.9806   56.0769   58.0411 C   0  0  0  0  0  0  0  0  0  0  0  0
  -47.1632   56.9665   57.1009 C   0  0  0  0  0  0  0  0  0  0  0  0
  -46.1294   57.8342   57.8291 C   0  0  0  0  0  0  0  0  0  0  0  0
  -49.1279   58.8960   65.8832 C   0  0  0  0  0  0  0  0  0  0  0  0
  -48.4220   57.5551   65.9787 C   0  0  0  0  0  0  0  0  0  0  0  0
  -47.1126   57.6768   66.7524 C   0  0  0  0  0  0  0  0  0  0  0  0
  -46.3854   58.9539   66.3555 C   0  0  0  0  0  0  0  0  0  0  0  0
  -45.4184   58.6962   65.2107 C   0  0  0  0  0  0  0  0  0  0  0  0
  -44.0955   59.4215   65.4346 C   0  0  0  0  0  0  0  0  0  0  0  0
  -43.3606   58.7939   66.6030 C   0  0  0  0  0  0  0  0  0  0  0  0
  -43.0027   59.5032   67.5779 O   0  0  0  0  0  0  0  0  0  0  0  0
  -43.0998   57.5630   66.6039 O   0  0  0  0  0  0  0  0  0  0  0  0
  -43.3631   57.0278   65.8813 H   0  0  0  0  0  0  0  0  0  0  0  0
 18 19  2  0  0  0
 18 17  1  0  0  0
 18 20  1  0  0  0
 17 16  1  0  0  0
 16 15  1  0  0  0
 15 14  1  0  0  0
 14 13  1  0  0  0
 13 12  1  0  0  0
 12  1  1  0  0  0
  1  2  1  0  0  0
  2  3  1  0  0  0
  3  4  1  0  0  0
  4  5  1  0  0  0
  5  6  1  0  0  0
  6  7  1  0  0  0
  7  8  1  0  0  0
  8  9  1  0  0  0
  9 10  1  0  0  0
 10 11  1  0  0  0
 20 21  1  0  0  0
M  END
> <minimizedAffinity>
-7.43696

> <CNNscore>
0.8161887527

> <CNNaffinity>
6.7256178856

> <CNN_VS>
5.4893736839

> <CNNaffinity_variance>
0.5198770165

$$$$



 21 20  0  0  0  0  0  0  0  0999 V2000
  -49.4082   58.7494   65.6293 C   0  0  0  0  0  0  0  0  0  0  0  0
  -50.6469   58.5573   64.7899 C   0  0  0  0  0  0  0  0  0  0  0  0
  -51.1725   59.6748   63.9938 C   0  0  0  0  0  0  0  0  0  0  0  0
  -51.5411   59.4692   62.5414 C   0  0  0  0  0  0  0  0  0  0  0  0
  -50.4845   58.6135   61.8437 C   0  0  0  0  0  0  0  0  0  0  0  0
  -51.0793   57.4591   61.0417 C   0  0  0  0  0  0  0  0  0  0  0  0
  -49.9971   56.6769   60.2925 C   0  0  0  0  0  0  0  0  0  0  0  0
  -49.4511   57.3703   59.0385 C   0  0  0  0  0  0  0  0  0  0  0  0
  -47.9354   57.5962   59.1154 C   0  0  0  0  0  0  0  0  0  0  0  0
  -47.2305   57.3286   57.7830 C   0  0  0  0  0  0  0  0  0  0  0  0
  -48.0002   56.3674   56.8691 C   0  0  0  0  0  0  0  0  0  0  0  0
  -48.4011   57.6913   65.2083 C   0  0  0  0  0  0  0  0  0  0  0  0
  -47.7570   57.0167   66.4064 C   0  0  0  0  0  0  0  0  0  0  0  0
  -46.5649   57.8213   66.9156 C   0  0  0  0  0  0  0  0  0  0  0  0
  -45.2637   57.1829   66.4500 C   0  0  0  0  0  0  0  0  0  0  0  0
  -44.7305   57.8782   65.2073 C   0  0  0  0  0  0  0  0  0  0  0  0
  -44.1354   59.2397   65.5517 C   0  0  0  0  0  0  0  0  0  0  0  0
  -42.9287   59.0566   66.4513 C   0  0  0  0  0  0  0  0  0  0  0  0
  -41.9420   58.3851   66.0547 O   0  0  0  0  0  0  0  0  0  0  0  0
  -42.9072   59.5697   67.5999 O   0  0  0  0  0  0  0  0  0  0  0  0
  -43.6383   60.0714   67.9027 H   0  0  0  0  0  0  0  0  0  0  0  0
 18 19  2  0  0  0
 18 17  1  0  0  0
 18 20  1  0  0  0
 17 16  1  0  0  0
 16 15  1  0  0  0
 15 14  1  0  0  0
 14 13  1  0  0  0
 13 12  1  0  0  0
 12  1  1  0  0  0
  1  2  1  0  0  0
  2  3  1  0  0  0
  3  4  1  0  0  0
  4  5  1  0  0  0
  5  6  1  0  0  0
  6  7  1  0  0  0
  7  8  1  0  0  0
  8  9  1  0  0  0
  9 10  1  0  0  0
 10 11  1  0  0  0
 20 21  1  0  0  0
M  END
> <minimizedAffinity>
-7.32028

> <CNNscore>
0.8114547133

> <CNNaffinity>
6.7034120560

> <CNN_VS>
5.4395151138

> <CNNaffinity_variance>
0.4027810097

$$$$



 21 20  0  0  0  0  0  0  0  0999 V2000
  -46.8789   59.7484   65.4527 C   0  0  0  0  0  0  0  0  0  0  0  0
  -48.3328   60.1098   65.6302 C   0  0  0  0  0  0  0  0  0  0  0  0
  -49.3061   59.0716   65.9957 C   0  0  0  0  0  0  0  0  0  0  0  0
  -50.4826   58.7773   65.0920 C   0  0  0  0  0  0  0  0  0  0  0  0
  -51.0535   60.0775   64.5270 C   0  0  0  0  0  0  0  0  0  0  0  0
  -51.6626   59.9128   63.1371 C   0  0  0  0  0  0  0  0  0  0  0  0
  -51.3552   58.5340   62.5468 C   0  0  0  0  0  0  0  0  0  0  0  0
  -50.2428   58.5174   61.4914 C   0  0  0  0  0  0  0  0  0  0  0  0
  -50.2712   57.2408   60.6404 C   0  0  0  0  0  0  0  0  0  0  0  0
  -49.7738   57.4730   59.2113 C   0  0  0  0  0  0  0  0  0  0  0  0
  -48.2539   57.3318   59.0649 C   0  0  0  0  0  0  0  0  0  0  0  0
  -46.8238   58.3527   64.8527 C   0  0  0  0  0  0  0  0  0  0  0  0
  -45.3952   57.8688   64.6796 C   0  0  0  0  0  0  0  0  0  0  0  0
  -44.3997   58.8840   65.2328 C   0  0  0  0  0  0  0  0  0  0  0  0
  -43.3626   58.1834   66.0995 C   0  0  0  0  0  0  0  0  0  0  0  0
  -42.1104   59.0337   66.2443 C   0  0  0  0  0  0  0  0  0  0  0  0
  -41.0017   58.5415   65.3196 C   0  0  0  0  0  0  0  0  0  0  0  0
  -40.5764   59.6622   64.3909 C   0  0  0  0  0  0  0  0  0  0  0  0
  -39.9654   59.3995   63.3235 O   0  0  0  0  0  0  0  0  0  0  0  0
  -40.8268   60.8602   64.6826 O   0  0  0  0  0  0  0  0  0  0  0  0
  -41.2816   61.0641   65.4760 H   0  0  0  0  0  0  0  0  0  0  0  0
 18 19  2  0  0  0
 18 17  1  0  0  0
 18 20  1  0  0  0
 17 16  1  0  0  0
 16 15  1  0  0  0
 15 14  1  0  0  0
 14 13  1  0  0  0
 13 12  1  0  0  0
 12  1  1  0  0  0
  1  2  1  0  0  0
  2  3  1  0  0  0
  3  4  1  0  0  0
  4  5  1  0  0  0
  5  6  1  0  0  0
  6  7  1  0  0  0
  7  8  1  0  0  0
  8  9  1  0  0  0
  9 10  1  0  0  0
 10 11  1  0  0  0
 20 21  1  0  0  0
M  END
> <minimizedAffinity>
-7.04609

> <CNNscore>
0.7924903035

> <CNNaffinity>
6.4572410583

> <CNN_VS>
5.1173009872

> <CNNaffinity_variance>
0.2610728741

$$$$
