


 19 18  0  0  0  0  0  0  0  0999 V2000
  -50.8137   57.4489   61.0415 C   0  0  0  0  0  0  0  0  0  0  0  0
  -49.9837   57.8475   59.8204 C   0  0  0  0  0  0  0  0  0  0  0  0
  -48.9061   56.7900   59.5679 C   0  0  0  0  0  0  0  0  0  0  0  0
  -47.5254   57.4455   59.6210 C   0  0  0  0  0  0  0  0  0  0  0  0
  -47.3301   58.3236   58.3838 C   0  0  0  0  0  0  0  0  0  0  0  0
  -46.3843   57.6231   57.4061 C   0  0  0  0  0  0  0  0  0  0  0  0
  -47.1852   56.7695   56.4568 C   0  0  0  0  0  0  0  0  0  0  0  0
  -47.0569   55.4332   56.4831 O   0  0  0  0  0  0  0  0  0  0  0  0
  -47.9437   57.2866   55.6729 O   0  0  0  0  0  0  0  0  0  0  0  0
  -48.0339   58.2190   55.6539 H   0  0  0  0  0  0  0  0  0  0  0  0
  -50.0886   57.8846   62.3150 C   0  0  0  0  0  0  0  0  0  0  0  0
  -49.6521   59.3209   62.1783 C   0  0  0  0  0  0  0  0  0  0  0  0
  -50.3196   60.2690   62.7876 C   0  0  0  0  0  0  0  0  0  0  0  0
  -51.4249   59.9151   63.7479 C   0  0  0  0  0  0  0  0  0  0  0  0
  -51.1786   60.6096   65.0875 C   0  0  0  0  0  0  0  0  0  0  0  0
  -49.9975   59.9451   65.7972 C   0  0  0  0  0  0  0  0  0  0  0  0
  -50.3002   58.4608   66.0109 C   0  0  0  0  0  0  0  0  0  0  0  0
  -49.0008   57.6579   65.9296 C   0  0  0  0  0  0  0  0  0  0  0  0
  -47.8635   58.5719   65.4704 C   0  0  0  0  0  0  0  0  0  0  0  0
  7  8  2  0  0  0
  7  9  1  0  0  0
  7  6  1  0  0  0
  6  5  1  0  0  0
  5  4  1  0  0  0
  4  3  1  0  0  0
  3  2  1  0  0  0
  2  1  1  0  0  0
  1 11  1  0  0  0
 11 12  1  0  0  0
 12 13  2  0  0  0
 13 14  1  0  0  0
 14 15  1  0  0  0
 15 16  1  0  0  0
 16 17  1  0  0  0
 17 18  1  0  0  0
 18 19  1  0  0  0
  9 10  1  0  0  0
M  END
> <minimizedAffinity>
-7.95627

$$$$



 19 18  0  0  0  0  0  0  0  0999 V2000
  -51.0627   57.7696   61.7447 C   0  0  0  0  0  0  0  0  0  0  0  0
  -50.0417   57.1463   60.7919 C   0  0  0  0  0  0  0  0  0  0  0  0
  -48.8088   58.0492   60.7026 C   0  0  0  0  0  0  0  0  0  0  0  0
  -47.7611   57.3945   59.8012 C   0  0  0  0  0  0  0  0  0  0  0  0
  -47.5060   58.2865   58.5850 C   0  0  0  0  0  0  0  0  0  0  0  0
  -46.4706   57.6229   57.6746 C   0  0  0  0  0  0  0  0  0  0  0  0
  -47.1628   56.6581   56.7465 C   0  0  0  0  0  0  0  0  0  0  0  0
  -48.4114   56.9117   56.3229 O   0  0  0  0  0  0  0  0  0  0  0  0
  -46.5946   55.6573   56.3824 O   0  0  0  0  0  0  0  0  0  0  0  0
  -45.7232   55.4796   56.6775 H   0  0  0  0  0  0  0  0  0  0  0  0
  -50.5045   59.0780   62.3051 C   0  0  0  0  0  0  0  0  0  0  0  0
  -51.5672   59.7694   63.1204 C   0  0  0  0  0  0  0  0  0  0  0  0
  -51.2718   60.2638   64.2969 C   0  0  0  0  0  0  0  0  0  0  0  0
  -49.8416   60.2821   64.7693 C   0  0  0  0  0  0  0  0  0  0  0  0
  -49.7232   59.4843   66.0682 C   0  0  0  0  0  0  0  0  0  0  0  0
  -49.2408   58.0670   65.7543 C   0  0  0  0  0  0  0  0  0  0  0  0
  -48.0118   58.1358   64.8458 C   0  0  0  0  0  0  0  0  0  0  0  0
  -46.7674   58.4142   65.6906 C   0  0  0  0  0  0  0  0  0  0  0  0
  -46.6587   57.3673   66.8004 C   0  0  0  0  0  0  0  0  0  0  0  0
  7  8  2  0  0  0
  7  9  1  0  0  0
  7  6  1  0  0  0
  6  5  1  0  0  0
  5  4  1  0  0  0
  4  3  1  0  0  0
  3  2  1  0  0  0
  2  1  1  0  0  0
  1 11  1  0  0  0
 11 12  1  0  0  0
 12 13  2  0  0  0
 13 14  1  0  0  0
 14 15  1  0  0  0
 15 16  1  0  0  0
 16 17  1  0  0  0
 17 18  1  0  0  0
 18 19  1  0  0  0
  9 10  1  0  0  0
M  END
> <minimizedAffinity>
-7.61582

$$$$



 19 18  0  0  0  0  0  0  0  0999 V2000
  -51.6327   60.2072   64.0079 C   0  0  0  0  0  0  0  0  0  0  0  0
  -50.7211   60.7774   65.0954 C   0  0  0  0  0  0  0  0  0  0  0  0
  -49.8315   59.6631   65.6524 C   0  0  0  0  0  0  0  0  0  0  0  0
  -48.3661   59.9821   65.3528 C   0  0  0  0  0  0  0  0  0  0  0  0
  -47.7297   58.8054   64.6108 C   0  0  0  0  0  0  0  0  0  0  0  0
  -47.9396   57.5216   65.4164 C   0  0  0  0  0  0  0  0  0  0  0  0
  -46.7595   57.3017   66.3275 C   0  0  0  0  0  0  0  0  0  0  0  0
  -46.8762   57.5306   67.6454 O   0  0  0  0  0  0  0  0  0  0  0  0
  -45.7089   56.9185   65.8732 O   0  0  0  0  0  0  0  0  0  0  0  0
  -45.6266   56.7585   64.9536 H   0  0  0  0  0  0  0  0  0  0  0  0
  -50.7879   59.7768   62.8086 C   0  0  0  0  0  0  0  0  0  0  0  0
  -51.1048   58.3453   62.4585 C   0  0  0  0  0  0  0  0  0  0  0  0
  -50.3049   57.6716   61.6698 C   0  0  0  0  0  0  0  0  0  0  0  0
  -48.9916   58.2702   61.2386 C   0  0  0  0  0  0  0  0  0  0  0  0
  -48.8624   58.1747   59.7181 C   0  0  0  0  0  0  0  0  0  0  0  0
  -47.5707   57.4371   59.3611 C   0  0  0  0  0  0  0  0  0  0  0  0
  -46.9417   58.0793   58.1231 C   0  0  0  0  0  0  0  0  0  0  0  0
  -47.4699   57.3878   56.8652 C   0  0  0  0  0  0  0  0  0  0  0  0
  -46.9478   55.9509   56.8147 C   0  0  0  0  0  0  0  0  0  0  0  0
  7  8  2  0  0  0
  7  9  1  0  0  0
  7  6  1  0  0  0
  6  5  1  0  0  0
  5  4  1  0  0  0
  4  3  1  0  0  0
  3  2  1  0  0  0
  2  1  1  0  0  0
  1 11  1  0  0  0
 11 12  1  0  0  0
 12 13  2  0  0  0
 13 14  1  0  0  0
 14 15  1  0  0  0
 15 16  1  0  0  0
 16 17  1  0  0  0
 17 18  1  0  0  0
 18 19  1  0  0  0
  9 10  1  0  0  0
M  END
> <minimizedAffinity>
-7.57625

$$$$



 19 18  0  0  0  0  0  0  0  0999 V2000
  -51.1845   58.5854   62.6728 C   0  0  0  0  0  0  0  0  0  0  0  0
  -50.6048   59.9162   63.1539 C   0  0  0  0  0  0  0  0  0  0  0  0
  -51.3960   60.4090   64.3681 C   0  0  0  0  0  0  0  0  0  0  0  0
  -50.6430   60.0472   65.6491 C   0  0  0  0  0  0  0  0  0  0  0  0
  -49.1680   60.4228   65.4967 C   0  0  0  0  0  0  0  0  0  0  0  0
  -48.3037   59.4081   66.2480 C   0  0  0  0  0  0  0  0  0  0  0  0
  -48.0883   58.1933   65.3826 C   0  0  0  0  0  0  0  0  0  0  0  0
  -47.5041   58.3198   64.1802 O   0  0  0  0  0  0  0  0  0  0  0  0
  -48.4397   57.1056   65.7703 O   0  0  0  0  0  0  0  0  0  0  0  0
  -48.8475   57.0164   66.6092 H   0  0  0  0  0  0  0  0  0  0  0  0
  -50.1446   57.8535   61.8240 C   0  0  0  0  0  0  0  0  0  0  0  0
  -50.4446   58.0719   60.3630 C   0  0  0  0  0  0  0  0  0  0  0  0
  -49.6511   57.5704   59.4495 C   0  0  0  0  0  0  0  0  0  0  0  0
  -48.5303   56.6469   59.8494 C   0  0  0  0  0  0  0  0  0  0  0  0
  -47.1908   57.3604   59.6644 C   0  0  0  0  0  0  0  0  0  0  0  0
  -47.2882   58.3310   58.4859 C   0  0  0  0  0  0  0  0  0  0  0  0
  -46.4738   57.7888   57.3098 C   0  0  0  0  0  0  0  0  0  0  0  0
  -47.3899   56.9941   56.3777 C   0  0  0  0  0  0  0  0  0  0  0  0
  -47.2764   55.5030   56.6992 C   0  0  0  0  0  0  0  0  0  0  0  0
  7  8  2  0  0  0
  7  9  1  0  0  0
  7  6  1  0  0  0
  6  5  1  0  0  0
  5  4  1  0  0  0
  4  3  1  0  0  0
  3  2  1  0  0  0
  2  1  1  0  0  0
  1 11  1  0  0  0
 11 12  1  0  0  0
 12 13  2  0  0  0
 13 14  1  0  0  0
 14 15  1  0  0  0
 15 16  1  0  0  0
 16 17  1  0  0  0
 17 18  1  0  0  0
 18 19  1  0  0  0
  9 10  1  0  0  0
M  END
> <minimizedAffinity>
-7.24526

$$$$



 19 18  0  0  0  0  0  0  0  0999 V2000
  -50.7160   60.0332   64.5559 C   0  0  0  0  0  0  0  0  0  0  0  0
  -50.2902   58.7506   65.2718 C   0  0  0  0  0  0  0  0  0  0  0  0
  -48.9119   58.9530   65.9061 C   0  0  0  0  0  0  0  0  0  0  0  0
  -47.8367   58.3719   64.9868 C   0  0  0  0  0  0  0  0  0  0  0  0
  -46.4893   58.3778   65.7110 C   0  0  0  0  0  0  0  0  0  0  0  0
  -45.3849   57.9652   64.7357 C   0  0  0  0  0  0  0  0  0  0  0  0
  -44.2851   57.2634   65.4899 C   0  0  0  0  0  0  0  0  0  0  0  0
  -43.8086   57.7911   66.6290 O   0  0  0  0  0  0  0  0  0  0  0  0
  -43.8326   56.2257   65.0712 O   0  0  0  0  0  0  0  0  0  0  0  0
  -44.1645   55.8567   64.2764 H   0  0  0  0  0  0  0  0  0  0  0  0
  -50.6420   59.8213   63.0436 C   0  0  0  0  0  0  0  0  0  0  0  0
  -51.1926   58.4610   62.6992 C   0  0  0  0  0  0  0  0  0  0  0  0
  -50.7655   57.8327   61.6322 C   0  0  0  0  0  0  0  0  0  0  0  0
  -49.6163   58.3939   60.8364 C   0  0  0  0  0  0  0  0  0  0  0  0
  -49.7600   57.9802   59.3715 C   0  0  0  0  0  0  0  0  0  0  0  0
  -48.5091   57.2174   58.9316 C   0  0  0  0  0  0  0  0  0  0  0  0
  -47.3751   58.2086   58.6631 C   0  0  0  0  0  0  0  0  0  0  0  0
  -46.5384   57.7187   57.4801 C   0  0  0  0  0  0  0  0  0  0  0  0
  -47.4577   57.1010   56.4251 C   0  0  0  0  0  0  0  0  0  0  0  0
  7  8  2  0  0  0
  7  9  1  0  0  0
  7  6  1  0  0  0
  6  5  1  0  0  0
  5  4  1  0  0  0
  4  3  1  0  0  0
  3  2  1  0  0  0
  2  1  1  0  0  0
  1 11  1  0  0  0
 11 12  1  0  0  0
 12 13  2  0  0  0
 13 14  1  0  0  0
 14 15  1  0  0  0
 15 16  1  0  0  0
 16 17  1  0  0  0
 17 18  1  0  0  0
 18 19  1  0  0  0
  9 10  1  0  0  0
M  END
> <minimizedAffinity>
-7.11010

$$$$



 19 18  0  0  0  0  0  0  0  0999 V2000
  -48.9191   58.2328   64.4095 C   0  0  0  0  0  0  0  0  0  0  0  0
  -47.5069   58.7205   64.7364 C   0  0  0  0  0  0  0  0  0  0  0  0
  -47.2664   58.6151   66.2444 C   0  0  0  0  0  0  0  0  0  0  0  0
  -45.8188   58.1948   66.5022 C   0  0  0  0  0  0  0  0  0  0  0  0
  -45.1090   57.9654   65.1668 C   0  0  0  0  0  0  0  0  0  0  0  0
  -43.6307   57.6633   65.4208 C   0  0  0  0  0  0  0  0  0  0  0  0
  -43.1551   56.6223   64.4404 C   0  0  0  0  0  0  0  0  0  0  0  0
  -42.8341   56.9774   63.1859 O   0  0  0  0  0  0  0  0  0  0  0  0
  -43.0612   55.4686   64.7827 O   0  0  0  0  0  0  0  0  0  0  0  0
  -43.2851   55.2198   65.6579 H   0  0  0  0  0  0  0  0  0  0  0  0
  -49.3847   58.8629   63.0966 C   0  0  0  0  0  0  0  0  0  0  0  0
  -50.8443   58.5543   62.8809 C   0  0  0  0  0  0  0  0  0  0  0  0
  -51.2203   57.8685   61.8302 C   0  0  0  0  0  0  0  0  0  0  0  0
  -50.1875   57.2547   60.9216 C   0  0  0  0  0  0  0  0  0  0  0  0
  -50.1283   58.0414   59.6119 C   0  0  0  0  0  0  0  0  0  0  0  0
  -48.9847   57.5075   58.7473 C   0  0  0  0  0  0  0  0  0  0  0  0
  -47.7380   57.3145   59.6127 C   0  0  0  0  0  0  0  0  0  0  0  0
  -46.4902   57.3690   58.7297 C   0  0  0  0  0  0  0  0  0  0  0  0
  -46.6641   58.4543   57.6660 C   0  0  0  0  0  0  0  0  0  0  0  0
  7  8  2  0  0  0
  7  9  1  0  0  0
  7  6  1  0  0  0
  6  5  1  0  0  0
  5  4  1  0  0  0
  4  3  1  0  0  0
  3  2  1  0  0  0
  2  1  1  0  0  0
  1 11  1  0  0  0
 11 12  1  0  0  0
 12 13  2  0  0  0
 13 14  1  0  0  0
 14 15  1  0  0  0
 15 16  1  0  0  0
 16 17  1  0  0  0
 17 18  1  0  0  0
 18 19  1  0  0  0
  9 10  1  0  0  0
M  END
> <minimizedAffinity>
-7.04139

$$$$



 19 18  0  0  0  0  0  0  0  0999 V2000
  -50.4483   60.4840   64.2985 C   0  0  0  0  0  0  0  0  0  0  0  0
  -51.3651   59.5944   63.4579 C   0  0  0  0  0  0  0  0  0  0  0  0
  -50.6070   59.1024   62.2224 C   0  0  0  0  0  0  0  0  0  0  0  0
  -51.1799   57.7571   61.7742 C   0  0  0  0  0  0  0  0  0  0  0  0
  -50.2002   57.0803   60.8139 C   0  0  0  0  0  0  0  0  0  0  0  0
  -49.8260   58.0562   59.6964 C   0  0  0  0  0  0  0  0  0  0  0  0
  -48.5453   57.6045   59.0431 C   0  0  0  0  0  0  0  0  0  0  0  0
  -48.5248   57.3170   57.7317 O   0  0  0  0  0  0  0  0  0  0  0  0
  -47.5366   57.5020   59.6982 O   0  0  0  0  0  0  0  0  0  0  0  0
  -47.5499   57.7024   60.6134 H   0  0  0  0  0  0  0  0  0  0  0  0
  -50.5066   60.0391   65.7601 C   0  0  0  0  0  0  0  0  0  0  0  0
  -50.3669   58.5402   65.8352 C   0  0  0  0  0  0  0  0  0  0  0  0
  -49.1842   57.9998   65.9928 C   0  0  0  0  0  0  0  0  0  0  0  0
  -47.9854   58.8732   66.2557 C   0  0  0  0  0  0  0  0  0  0  0  0
  -47.0669   58.1878   67.2677 C   0  0  0  0  0  0  0  0  0  0  0  0
  -45.6710   58.0273   66.6629 C   0  0  0  0  0  0  0  0  0  0  0  0
  -45.7507   58.1930   65.1441 C   0  0  0  0  0  0  0  0  0  0  0  0
  -44.3639   57.9828   64.5341 C   0  0  0  0  0  0  0  0  0  0  0  0
  -43.6304   56.8808   65.3004 C   0  0  0  0  0  0  0  0  0  0  0  0
  7  8  2  0  0  0
  7  9  1  0  0  0
  7  6  1  0  0  0
  6  5  1  0  0  0
  5  4  1  0  0  0
  4  3  1  0  0  0
  3  2  1  0  0  0
  2  1  1  0  0  0
  1 11  1  0  0  0
 11 12  1  0  0  0
 12 13  2  0  0  0
 13 14  1  0  0  0
 14 15  1  0  0  0
 15 16  1  0  0  0
 16 17  1  0  0  0
 17 18  1  0  0  0
 18 19  1  0  0  0
  9 10  1  0  0  0
M  END
> <minimizedAffinity>
-6.77878

$$$$



 19 18  0  0  0  0  0  0  0  0999 V2000
  -33.7794   58.4171   61.9910 C   0  0  0  0  0  0  0  0  0  0  0  0
  -34.5487   57.1077   62.1708 C   0  0  0  0  0  0  0  0  0  0  0  0
  -36.0513   57.3982   62.2028 C   0  0  0  0  0  0  0  0  0  0  0  0
  -36.3966   58.4206   61.1192 C   0  0  0  0  0  0  0  0  0  0  0  0
  -37.8844   58.3194   60.7785 C   0  0  0  0  0  0  0  0  0  0  0  0
  -38.2603   59.4351   59.8012 C   0  0  0  0  0  0  0  0  0  0  0  0
  -39.7592   59.5871   59.7648 C   0  0  0  0  0  0  0  0  0  0  0  0
  -40.5411   58.6885   60.3847 O   0  0  0  0  0  0  0  0  0  0  0  0
  -40.2579   60.5174   59.1793 O   0  0  0  0  0  0  0  0  0  0  0  0
  -39.7130   61.1449   58.7464 H   0  0  0  0  0  0  0  0  0  0  0  0
  -32.4499   58.1351   61.2907 C   0  0  0  0  0  0  0  0  0  0  0  0
  -32.1888   56.6505   61.2871 C   0  0  0  0  0  0  0  0  0  0  0  0
  -30.9766   56.1983   61.4918 C   0  0  0  0  0  0  0  0  0  0  0  0
  -29.8747   57.1470   61.8851 C   0  0  0  0  0  0  0  0  0  0  0  0
  -28.6692   56.9366   60.9685 C   0  0  0  0  0  0  0  0  0  0  0  0
  -28.2460   55.4671   61.0112 C   0  0  0  0  0  0  0  0  0  0  0  0
  -27.6019   55.1607   62.3646 C   0  0  0  0  0  0  0  0  0  0  0  0
  -27.6464   53.6535   62.6217 C   0  0  0  0  0  0  0  0  0  0  0  0
  -28.5518   53.3664   63.8206 C   0  0  0  0  0  0  0  0  0  0  0  0
  7  8  2  0  0  0
  7  9  1  0  0  0
  7  6  1  0  0  0
  6  5  1  0  0  0
  5  4  1  0  0  0
  4  3  1  0  0  0
  3  2  1  0  0  0
  2  1  1  0  0  0
  1 11  1  0  0  0
 11 12  1  0  0  0
 12 13  2  0  0  0
 13 14  1  0  0  0
 14 15  1  0  0  0
 15 16  1  0  0  0
 16 17  1  0  0  0
 17 18  1  0  0  0
 18 19  1  0  0  0
  9 10  1  0  0  0
M  END
> <minimizedAffinity>
-6.69198

$$$$



 19 18  0  0  0  0  0  0  0  0999 V2000
  -50.5977   59.2075   65.5529 C   0  0  0  0  0  0  0  0  0  0  0  0
  -51.0963   60.4588   64.8288 C   0  0  0  0  0  0  0  0  0  0  0  0
  -51.7574   60.0556   63.5083 C   0  0  0  0  0  0  0  0  0  0  0  0
  -51.1025   58.7792   62.9785 C   0  0  0  0  0  0  0  0  0  0  0  0
  -50.2468   59.1151   61.7558 C   0  0  0  0  0  0  0  0  0  0  0  0
  -49.0222   58.1984   61.7237 C   0  0  0  0  0  0  0  0  0  0  0  0
  -48.8279   57.6685   60.3264 C   0  0  0  0  0  0  0  0  0  0  0  0
  -49.2360   56.4277   60.0153 O   0  0  0  0  0  0  0  0  0  0  0  0
  -48.3063   58.3597   59.4854 O   0  0  0  0  0  0  0  0  0  0  0  0
  -48.0212   59.2257   59.7016 H   0  0  0  0  0  0  0  0  0  0  0  0
  -49.1776   59.4474   66.0659 C   0  0  0  0  0  0  0  0  0  0  0  0
  -48.3427   60.0554   64.9680 C   0  0  0  0  0  0  0  0  0  0  0  0
  -47.2034   59.5044   64.6301 C   0  0  0  0  0  0  0  0  0  0  0  0
  -46.8005   58.1806   65.2254 C   0  0  0  0  0  0  0  0  0  0  0  0
  -45.2905   57.9928   65.0764 C   0  0  0  0  0  0  0  0  0  0  0  0
  -44.6882   57.6082   66.4290 C   0  0  0  0  0  0  0  0  0  0  0  0
  -43.2117   57.2511   66.2471 C   0  0  0  0  0  0  0  0  0  0  0  0
  -42.4219   58.5113   65.8899 C   0  0  0  0  0  0  0  0  0  0  0  0
  -42.1194   59.3027   67.1634 C   0  0  0  0  0  0  0  0  0  0  0  0
  7  8  2  0  0  0
  7  9  1  0  0  0
  7  6  1  0  0  0
  6  5  1  0  0  0
  5  4  1  0  0  0
  4  3  1  0  0  0
  3  2  1  0  0  0
  2  1  1  0  0  0
  1 11  1  0  0  0
 11 12  1  0  0  0
 12 13  2  0  0  0
 13 14  1  0  0  0
 14 15  1  0  0  0
 15 16  1  0  0  0
 16 17  1  0  0  0
 17 18  1  0  0  0
 18 19  1  0  0  0
  9 10  1  0  0  0
M  END
> <minimizedAffinity>
-6.68897

$$$$
