


 19 18  0  0  0  0  0  0  0  0999 V2000
  -51.0866   57.6784   61.1355 C   0  0  0  0  0  0  0  0  0  0  0  0
  -50.4268   58.1655   62.4263 C   0  0  0  0  0  0  0  0  0  0  0  0
  -50.4299   59.6959   62.4558 C   0  0  0  0  0  0  0  0  0  0  0  0
  -51.6283   60.1883   63.2684 C   0  0  0  0  0  0  0  0  0  0  0  0
  -51.2661   60.2004   64.7545 C   0  0  0  0  0  0  0  0  0  0  0  0
  -49.7452   60.2671   64.9077 C   0  0  0  0  0  0  0  0  0  0  0  0
  -49.3277   59.4795   66.1228 C   0  0  0  0  0  0  0  0  0  0  0  0
  -49.5077   58.1493   66.1560 O   0  0  0  0  0  0  0  0  0  0  0  0
  -48.8299   60.0438   67.0666 O   0  0  0  0  0  0  0  0  0  0  0  0
  -48.7038   60.9720   67.0443 H   0  0  0  0  0  0  0  0  0  0  0  0
  -50.0165   57.1284   60.1922 C   0  0  0  0  0  0  0  0  0  0  0  0
  -49.9421   57.9915   58.9587 C   0  0  0  0  0  0  0  0  0  0  0  0
  -48.9876   58.8803   58.8379 C   0  0  0  0  0  0  0  0  0  0  0  0
  -47.8759   58.9352   59.8529 C   0  0  0  0  0  0  0  0  0  0  0  0
  -46.5435   58.6321   59.1670 C   0  0  0  0  0  0  0  0  0  0  0  0
  -46.7151   58.7362   57.6504 C   0  0  0  0  0  0  0  0  0  0  0  0
  -46.2525   57.4340   56.9940 C   0  0  0  0  0  0  0  0  0  0  0  0
  -47.4600   56.7010   56.4073 C   0  0  0  0  0  0  0  0  0  0  0  0
  -47.6385   55.3591   57.1195 C   0  0  0  0  0  0  0  0  0  0  0  0
  7  8  2  0  0  0
  7  9  1  0  0  0
  7  6  1  0  0  0
  6  5  1  0  0  0
  5  4  1  0  0  0
  4  3  1  0  0  0
  3  2  1  0  0  0
  2  1  1  0  0  0
  1 11  1  0  0  0
 11 12  1  0  0  0
 12 13  2  0  0  0
 13 14  1  0  0  0
 14 15  1  0  0  0
 15 16  1  0  0  0
 16 17  1  0  0  0
 17 18  1  0  0  0
 18 19  1  0  0  0
  9 10  1  0  0  0
M  END
> <minimizedAffinity>
-7.76970

$$$$



 19 18  0  0  0  0  0  0  0  0999 V2000
  -49.5106   57.5503   61.5404 C   0  0  0  0  0  0  0  0  0  0  0  0
  -50.7882   58.3754   61.7007 C   0  0  0  0  0  0  0  0  0  0  0  0
  -50.4663   59.6772   62.4388 C   0  0  0  0  0  0  0  0  0  0  0  0
  -51.6761   60.1047   63.2709 C   0  0  0  0  0  0  0  0  0  0  0  0
  -51.2363   60.3683   64.7120 C   0  0  0  0  0  0  0  0  0  0  0  0
  -50.2034   59.3194   65.1293 C   0  0  0  0  0  0  0  0  0  0  0  0
  -49.0452   59.9992   65.8130 C   0  0  0  0  0  0  0  0  0  0  0  0
  -48.1136   60.6347   65.0842 O   0  0  0  0  0  0  0  0  0  0  0  0
  -48.9547   59.9738   67.0164 O   0  0  0  0  0  0  0  0  0  0  0  0
  -49.6044   59.5305   67.5258 H   0  0  0  0  0  0  0  0  0  0  0  0
  -49.5318   56.8352   60.1892 C   0  0  0  0  0  0  0  0  0  0  0  0
  -49.9638   57.8015   59.1160 C   0  0  0  0  0  0  0  0  0  0  0  0
  -49.3826   57.7794   57.9424 C   0  0  0  0  0  0  0  0  0  0  0  0
  -48.3949   56.6915   57.6108 C   0  0  0  0  0  0  0  0  0  0  0  0
  -47.2553   57.2747   56.7749 C   0  0  0  0  0  0  0  0  0  0  0  0
  -46.4745   58.2884   57.6133 C   0  0  0  0  0  0  0  0  0  0  0  0
  -45.7824   57.5673   58.7716 C   0  0  0  0  0  0  0  0  0  0  0  0
  -46.0614   58.3136   60.0773 C   0  0  0  0  0  0  0  0  0  0  0  0
  -46.6919   59.6717   59.7647 C   0  0  0  0  0  0  0  0  0  0  0  0
  7  8  2  0  0  0
  7  9  1  0  0  0
  7  6  1  0  0  0
  6  5  1  0  0  0
  5  4  1  0  0  0
  4  3  1  0  0  0
  3  2  1  0  0  0
  2  1  1  0  0  0
  1 11  1  0  0  0
 11 12  1  0  0  0
 12 13  2  0  0  0
 13 14  1  0  0  0
 14 15  1  0  0  0
 15 16  1  0  0  0
 16 17  1  0  0  0
 17 18  1  0  0  0
 18 19  1  0  0  0
  9 10  1  0  0  0
M  END
> <minimizedAffinity>
-7.61202

$$$$



 19 18  0  0  0  0  0  0  0  0999 V2000
  -49.6840   57.1174   59.7420 C   0  0  0  0  0  0  0  0  0  0  0  0
  -50.8913   57.5223   60.5888 C   0  0  0  0  0  0  0  0  0  0  0  0
  -50.4179   57.9592   61.9774 C   0  0  0  0  0  0  0  0  0  0  0  0
  -51.0953   59.2768   62.3565 C   0  0  0  0  0  0  0  0  0  0  0  0
  -50.6387   59.7014   63.7534 C   0  0  0  0  0  0  0  0  0  0  0  0
  -49.6257   58.6872   64.2884 C   0  0  0  0  0  0  0  0  0  0  0  0
  -49.7809   58.5623   65.7821 C   0  0  0  0  0  0  0  0  0  0  0  0
  -50.1750   59.6211   66.5078 O   0  0  0  0  0  0  0  0  0  0  0  0
  -49.5523   57.5098   66.3272 O   0  0  0  0  0  0  0  0  0  0  0  0
  -49.2773   56.7704   65.8217 H   0  0  0  0  0  0  0  0  0  0  0  0
  -49.5726   58.0491   58.5349 C   0  0  0  0  0  0  0  0  0  0  0  0
  -48.9750   57.2972   57.3732 C   0  0  0  0  0  0  0  0  0  0  0  0
  -47.7790   57.6071   56.9381 C   0  0  0  0  0  0  0  0  0  0  0  0
  -46.9377   58.6037   57.6917 C   0  0  0  0  0  0  0  0  0  0  0  0
  -45.9108   57.8611   58.5471 C   0  0  0  0  0  0  0  0  0  0  0  0
  -46.1614   58.1664   60.0249 C   0  0  0  0  0  0  0  0  0  0  0  0
  -46.2354   59.6810   60.2276 C   0  0  0  0  0  0  0  0  0  0  0  0
  -47.4353   60.0194   61.1138 C   0  0  0  0  0  0  0  0  0  0  0  0
  -48.4276   60.8754   60.3251 C   0  0  0  0  0  0  0  0  0  0  0  0
  7  8  2  0  0  0
  7  9  1  0  0  0
  7  6  1  0  0  0
  6  5  1  0  0  0
  5  4  1  0  0  0
  4  3  1  0  0  0
  3  2  1  0  0  0
  2  1  1  0  0  0
  1 11  1  0  0  0
 11 12  1  0  0  0
 12 13  2  0  0  0
 13 14  1  0  0  0
 14 15  1  0  0  0
 15 16  1  0  0  0
 16 17  1  0  0  0
 17 18  1  0  0  0
 18 19  1  0  0  0
  9 10  1  0  0  0
M  END
> <minimizedAffinity>
-7.42280

$$$$



 19 18  0  0  0  0  0  0  0  0999 V2000
  -51.4882   59.6348   62.8405 C   0  0  0  0  0  0  0  0  0  0  0  0
  -51.2027   60.3487   64.1624 C   0  0  0  0  0  0  0  0  0  0  0  0
  -49.8938   59.8213   64.7556 C   0  0  0  0  0  0  0  0  0  0  0  0
  -50.1968   58.6770   65.7240 C   0  0  0  0  0  0  0  0  0  0  0  0
  -48.8887   58.1523   66.3184 C   0  0  0  0  0  0  0  0  0  0  0  0
  -48.2053   57.2275   65.3090 C   0  0  0  0  0  0  0  0  0  0  0  0
  -47.3132   56.2576   66.0401 C   0  0  0  0  0  0  0  0  0  0  0  0
  -46.4262   56.7088   66.9416 O   0  0  0  0  0  0  0  0  0  0  0  0
  -47.3963   55.0743   65.8168 O   0  0  0  0  0  0  0  0  0  0  0  0
  -48.0150   54.7586   65.1879 H   0  0  0  0  0  0  0  0  0  0  0  0
  -50.1737   59.3899   62.0992 C   0  0  0  0  0  0  0  0  0  0  0  0
  -49.9699   57.9080   61.9137 C   0  0  0  0  0  0  0  0  0  0  0  0
  -50.1660   57.3619   60.7393 C   0  0  0  0  0  0  0  0  0  0  0  0
  -50.4417   58.2313   59.5405 C   0  0  0  0  0  0  0  0  0  0  0  0
  -49.5490   57.7955   58.3783 C   0  0  0  0  0  0  0  0  0  0  0  0
  -48.2602   58.6196   58.3880 C   0  0  0  0  0  0  0  0  0  0  0  0
  -47.3234   58.1147   57.2889 C   0  0  0  0  0  0  0  0  0  0  0  0
  -45.9870   57.7011   57.9074 C   0  0  0  0  0  0  0  0  0  0  0  0
  -46.0287   57.9362   59.4182 C   0  0  0  0  0  0  0  0  0  0  0  0
  7  8  2  0  0  0
  7  9  1  0  0  0
  7  6  1  0  0  0
  6  5  1  0  0  0
  5  4  1  0  0  0
  4  3  1  0  0  0
  3  2  1  0  0  0
  2  1  1  0  0  0
  1 11  1  0  0  0
 11 12  1  0  0  0
 12 13  2  0  0  0
 13 14  1  0  0  0
 14 15  1  0  0  0
 15 16  1  0  0  0
 16 17  1  0  0  0
 17 18  1  0  0  0
 18 19  1  0  0  0
  9 10  1  0  0  0
M  END
> <minimizedAffinity>
-7.06371

$$$$



 19 18  0  0  0  0  0  0  0  0999 V2000
  -50.0301   60.2864   61.3012 C   0  0  0  0  0  0  0  0  0  0  0  0
  -48.6526   59.7024   60.9845 C   0  0  0  0  0  0  0  0  0  0  0  0
  -48.5578   59.4004   59.4868 C   0  0  0  0  0  0  0  0  0  0  0  0
  -47.0998   59.1317   59.1116 C   0  0  0  0  0  0  0  0  0  0  0  0
  -46.9890   58.9456   57.5974 C   0  0  0  0  0  0  0  0  0  0  0  0
  -46.2965   57.6147   57.2970 C   0  0  0  0  0  0  0  0  0  0  0  0
  -47.2368   56.7211   56.5299 C   0  0  0  0  0  0  0  0  0  0  0  0
  -46.9691   55.4109   56.4077 O   0  0  0  0  0  0  0  0  0  0  0  0
  -48.2319   57.1822   56.0258 O   0  0  0  0  0  0  0  0  0  0  0  0
  -48.4195   58.0964   56.1106 H   0  0  0  0  0  0  0  0  0  0  0  0
  -50.7491   59.3820   62.3025 C   0  0  0  0  0  0  0  0  0  0  0  0
  -51.7471   60.1946   63.0871 C   0  0  0  0  0  0  0  0  0  0  0  0
  -51.5139   60.4828   64.3434 C   0  0  0  0  0  0  0  0  0  0  0  0
  -50.1836   60.1396   64.9610 C   0  0  0  0  0  0  0  0  0  0  0  0
  -50.3974   59.1814   66.1330 C   0  0  0  0  0  0  0  0  0  0  0  0
  -49.7535   57.8313   65.8123 C   0  0  0  0  0  0  0  0  0  0  0  0
  -48.2943   58.0457   65.4055 C   0  0  0  0  0  0  0  0  0  0  0  0
  -47.3837   57.7589   66.6005 C   0  0  0  0  0  0  0  0  0  0  0  0
  -46.4299   56.6148   66.2530 C   0  0  0  0  0  0  0  0  0  0  0  0
  7  8  2  0  0  0
  7  9  1  0  0  0
  7  6  1  0  0  0
  6  5  1  0  0  0
  5  4  1  0  0  0
  4  3  1  0  0  0
  3  2  1  0  0  0
  2  1  1  0  0  0
  1 11  1  0  0  0
 11 12  1  0  0  0
 12 13  2  0  0  0
 13 14  1  0  0  0
 14 15  1  0  0  0
 15 16  1  0  0  0
 16 17  1  0  0  0
 17 18  1  0  0  0
 18 19  1  0  0  0
  9 10  1  0  0  0
M  END
> <minimizedAffinity>
-7.05895

$$$$



 19 18  0  0  0  0  0  0  0  0999 V2000
  -46.3640   58.5360   61.3312 C   0  0  0  0  0  0  0  0  0  0  0  0
  -47.4292   59.6324   61.3752 C   0  0  0  0  0  0  0  0  0  0  0  0
  -48.0639   59.6725   62.7675 C   0  0  0  0  0  0  0  0  0  0  0  0
  -48.6299   58.2938   63.1103 C   0  0  0  0  0  0  0  0  0  0  0  0
  -49.9650   58.4575   63.8387 C   0  0  0  0  0  0  0  0  0  0  0  0
  -49.7768   58.1428   65.3242 C   0  0  0  0  0  0  0  0  0  0  0  0
  -50.0014   59.3932   66.1349 C   0  0  0  0  0  0  0  0  0  0  0  0
  -49.0104   59.8899   66.8927 O   0  0  0  0  0  0  0  0  0  0  0  0
  -51.0720   59.9498   66.1026 O   0  0  0  0  0  0  0  0  0  0  0  0
  -51.7641   59.6039   65.5740 H   0  0  0  0  0  0  0  0  0  0  0  0
  -45.8916   58.3418   59.8901 C   0  0  0  0  0  0  0  0  0  0  0  0
  -46.6822   59.2429   58.9763 C   0  0  0  0  0  0  0  0  0  0  0  0
  -46.7938   58.9506   57.7044 C   0  0  0  0  0  0  0  0  0  0  0  0
  -46.2679   57.6386   57.1836 C   0  0  0  0  0  0  0  0  0  0  0  0
  -47.4072   56.8556   56.5304 C   0  0  0  0  0  0  0  0  0  0  0  0
  -48.5854   56.7632   57.5018 C   0  0  0  0  0  0  0  0  0  0  0  0
  -48.2482   55.7753   58.6202 C   0  0  0  0  0  0  0  0  0  0  0  0
  -49.0097   56.1617   59.8893 C   0  0  0  0  0  0  0  0  0  0  0  0
  -49.8800   57.3880   59.6094 C   0  0  0  0  0  0  0  0  0  0  0  0
  7  8  2  0  0  0
  7  9  1  0  0  0
  7  6  1  0  0  0
  6  5  1  0  0  0
  5  4  1  0  0  0
  4  3  1  0  0  0
  3  2  1  0  0  0
  2  1  1  0  0  0
  1 11  1  0  0  0
 11 12  1  0  0  0
 12 13  2  0  0  0
 13 14  1  0  0  0
 14 15  1  0  0  0
 15 16  1  0  0  0
 16 17  1  0  0  0
 17 18  1  0  0  0
 18 19  1  0  0  0
  9 10  1  0  0  0
M  END
> <minimizedAffinity>
-7.02850

$$$$



 19 18  0  0  0  0  0  0  0  0999 V2000
  -50.7506   57.3059   60.5089 C   0  0  0  0  0  0  0  0  0  0  0  0
  -49.5811   56.9599   59.5862 C   0  0  0  0  0  0  0  0  0  0  0  0
  -49.6083   57.8772   58.3610 C   0  0  0  0  0  0  0  0  0  0  0  0
  -48.5026   57.4634   57.3889 C   0  0  0  0  0  0  0  0  0  0  0  0
  -47.3810   58.5031   57.4203 C   0  0  0  0  0  0  0  0  0  0  0  0
  -46.1557   57.9097   58.1187 C   0  0  0  0  0  0  0  0  0  0  0  0
  -46.0683   58.4483   59.5234 C   0  0  0  0  0  0  0  0  0  0  0  0
  -46.6798   59.6008   59.8406 O   0  0  0  0  0  0  0  0  0  0  0  0
  -45.4494   57.8432   60.3648 O   0  0  0  0  0  0  0  0  0  0  0  0
  -45.0224   57.0388   60.1444 H   0  0  0  0  0  0  0  0  0  0  0  0
  -50.2116   57.7980   61.8523 C   0  0  0  0  0  0  0  0  0  0  0  0
  -49.6891   59.2037   61.6997 C   0  0  0  0  0  0  0  0  0  0  0  0
  -50.3634   60.2105   62.1968 C   0  0  0  0  0  0  0  0  0  0  0  0
  -51.5758   59.9560   63.0538 C   0  0  0  0  0  0  0  0  0  0  0  0
  -51.3352   60.5146   64.4566 C   0  0  0  0  0  0  0  0  0  0  0  0
  -50.5977   59.4736   65.3007 C   0  0  0  0  0  0  0  0  0  0  0  0
  -49.2395   60.0329   65.7285 C   0  0  0  0  0  0  0  0  0  0  0  0
  -48.1227   59.2120   65.0817 C   0  0  0  0  0  0  0  0  0  0  0  0
  -48.4951   57.7288   65.1131 C   0  0  0  0  0  0  0  0  0  0  0  0
  7  8  2  0  0  0
  7  9  1  0  0  0
  7  6  1  0  0  0
  6  5  1  0  0  0
  5  4  1  0  0  0
  4  3  1  0  0  0
  3  2  1  0  0  0
  2  1  1  0  0  0
  1 11  1  0  0  0
 11 12  1  0  0  0
 12 13  2  0  0  0
 13 14  1  0  0  0
 14 15  1  0  0  0
 15 16  1  0  0  0
 16 17  1  0  0  0
 17 18  1  0  0  0
 18 19  1  0  0  0
  9 10  1  0  0  0
M  END
> <minimizedAffinity>
-6.97336

$$$$



 19 18  0  0  0  0  0  0  0  0999 V2000
  -50.4299   60.1948   62.1674 C   0  0  0  0  0  0  0  0  0  0  0  0
  -51.5598   60.0316   63.1849 C   0  0  0  0  0  0  0  0  0  0  0  0
  -51.1364   60.6461   64.5214 C   0  0  0  0  0  0  0  0  0  0  0  0
  -50.7905   59.5309   65.5091 C   0  0  0  0  0  0  0  0  0  0  0  0
  -49.3234   59.6545   65.9241 C   0  0  0  0  0  0  0  0  0  0  0  0
  -48.6530   58.2817   65.8406 C   0  0  0  0  0  0  0  0  0  0  0  0
  -47.4805   58.2369   66.7863 C   0  0  0  0  0  0  0  0  0  0  0  0
  -46.8394   57.0780   67.0075 O   0  0  0  0  0  0  0  0  0  0  0  0
  -47.1161   59.2431   67.3446 O   0  0  0  0  0  0  0  0  0  0  0  0
  -47.5629   60.0522   67.1909 H   0  0  0  0  0  0  0  0  0  0  0  0
  -49.6965   58.8634   62.0022 C   0  0  0  0  0  0  0  0  0  0  0  0
  -50.7021   57.7532   61.8343 C   0  0  0  0  0  0  0  0  0  0  0  0
  -50.8163   57.1419   60.6815 C   0  0  0  0  0  0  0  0  0  0  0  0
  -49.8413   57.4372   59.5719 C   0  0  0  0  0  0  0  0  0  0  0  0
  -48.7705   56.3466   59.5302 C   0  0  0  0  0  0  0  0  0  0  0  0
  -47.4040   56.9830   59.2699 C   0  0  0  0  0  0  0  0  0  0  0  0
  -47.5868   58.4639   58.9321 C   0  0  0  0  0  0  0  0  0  0  0  0
  -46.8003   58.7991   57.6637 C   0  0  0  0  0  0  0  0  0  0  0  0
  -46.1647   57.5249   57.1052 C   0  0  0  0  0  0  0  0  0  0  0  0
  7  8  2  0  0  0
  7  9  1  0  0  0
  7  6  1  0  0  0
  6  5  1  0  0  0
  5  4  1  0  0  0
  4  3  1  0  0  0
  3  2  1  0  0  0
  2  1  1  0  0  0
  1 11  1  0  0  0
 11 12  1  0  0  0
 12 13  2  0  0  0
 13 14  1  0  0  0
 14 15  1  0  0  0
 15 16  1  0  0  0
 16 17  1  0  0  0
 17 18  1  0  0  0
 18 19  1  0  0  0
  9 10  1  0  0  0
M  END
> <minimizedAffinity>
-6.93874

$$$$



 19 18  0  0  0  0  0  0  0  0999 V2000
  -47.6819   61.0271   59.8030 C   0  0  0  0  0  0  0  0  0  0  0  0
  -47.2152   60.0549   58.7186 C   0  0  0  0  0  0  0  0  0  0  0  0
  -46.9560   58.6809   59.3415 C   0  0  0  0  0  0  0  0  0  0  0  0
  -46.0852   57.8492   58.3988 C   0  0  0  0  0  0  0  0  0  0  0  0
  -46.6083   57.9862   56.9678 C   0  0  0  0  0  0  0  0  0  0  0  0
  -47.8734   57.1413   56.8048 C   0  0  0  0  0  0  0  0  0  0  0  0
  -47.5606   55.7018   57.1230 C   0  0  0  0  0  0  0  0  0  0  0  0
  -48.0837   55.1266   58.2178 O   0  0  0  0  0  0  0  0  0  0  0  0
  -46.8406   55.0646   56.3933 O   0  0  0  0  0  0  0  0  0  0  0  0
  -46.4751   55.4652   55.6291 H   0  0  0  0  0  0  0  0  0  0  0  0
  -47.6520   60.3274   61.1620 C   0  0  0  0  0  0  0  0  0  0  0  0
  -46.9466   61.2054   62.1638 C   0  0  0  0  0  0  0  0  0  0  0  0
  -47.0094   60.9225   63.4412 C   0  0  0  0  0  0  0  0  0  0  0  0
  -47.6512   59.6386   63.8982 C   0  0  0  0  0  0  0  0  0  0  0  0
  -48.6663   59.9402   65.0011 C   0  0  0  0  0  0  0  0  0  0  0  0
  -49.9755   59.2070   64.7039 C   0  0  0  0  0  0  0  0  0  0  0  0
  -51.1134   60.2226   64.5845 C   0  0  0  0  0  0  0  0  0  0  0  0
  -51.6237   60.2504   63.1428 C   0  0  0  0  0  0  0  0  0  0  0  0
  -50.9914   59.1019   62.3549 C   0  0  0  0  0  0  0  0  0  0  0  0
  7  8  2  0  0  0
  7  9  1  0  0  0
  7  6  1  0  0  0
  6  5  1  0  0  0
  5  4  1  0  0  0
  4  3  1  0  0  0
  3  2  1  0  0  0
  2  1  1  0  0  0
  1 11  1  0  0  0
 11 12  1  0  0  0
 12 13  2  0  0  0
 13 14  1  0  0  0
 14 15  1  0  0  0
 15 16  1  0  0  0
 16 17  1  0  0  0
 17 18  1  0  0  0
 18 19  1  0  0  0
  9 10  1  0  0  0
M  END
> <minimizedAffinity>
-6.92238

$$$$
