


 19 18  0  0  0  0  0  0  0  0999 V2000
  -49.9744   60.0303   63.7062 C   0  0  0  0  0  0  0  0  0  0  0  0
  -50.7329   59.3820   64.8652 C   0  0  0  0  0  0  0  0  0  0  0  0
  -49.7467   58.6360   65.7674 C   0  0  0  0  0  0  0  0  0  0  0  0
  -48.7578   59.6314   66.3756 C   0  0  0  0  0  0  0  0  0  0  0  0
  -47.3833   58.9720   66.5017 C   0  0  0  0  0  0  0  0  0  0  0  0
  -46.8596   58.6153   65.1090 C   0  0  0  0  0  0  0  0  0  0  0  0
  -45.4506   58.0925   65.2208 C   0  0  0  0  0  0  0  0  0  0  0  0
  -44.5059   58.5189   64.3672 O   0  0  0  0  0  0  0  0  0  0  0  0
  -45.1701   57.2910   66.0786 O   0  0  0  0  0  0  0  0  0  0  0  0
  -45.8287   56.9929   66.6747 H   0  0  0  0  0  0  0  0  0  0  0  0
  -49.6515   58.9709   62.6523 C   0  0  0  0  0  0  0  0  0  0  0  0
  -50.8981   58.1876   62.3288 C   0  0  0  0  0  0  0  0  0  0  0  0
  -51.0825   57.7205   61.1191 C   0  0  0  0  0  0  0  0  0  0  0  0
  -49.9842   57.8284   60.0939 C   0  0  0  0  0  0  0  0  0  0  0  0
  -49.1831   56.5264   60.0655 C   0  0  0  0  0  0  0  0  0  0  0  0
  -47.8190   56.7805   59.4215 C   0  0  0  0  0  0  0  0  0  0  0  0
  -47.9232   57.9616   58.4547 C   0  0  0  0  0  0  0  0  0  0  0  0
  -47.7348   57.4653   57.0202 C   0  0  0  0  0  0  0  0  0  0  0  0
  -47.1193   56.0652   57.0408 C   0  0  0  0  0  0  0  0  0  0  0  0
  7  8  2  0  0  0
  7  9  1  0  0  0
  7  6  1  0  0  0
  6  5  1  0  0  0
  5  4  1  0  0  0
  4  3  1  0  0  0
  3  2  1  0  0  0
  2  1  1  0  0  0
  1 11  1  0  0  0
 11 12  1  0  0  0
 12 13  2  0  0  0
 13 14  1  0  0  0
 14 15  1  0  0  0
 15 16  1  0  0  0
 16 17  1  0  0  0
 17 18  1  0  0  0
 18 19  1  0  0  0
  9 10  1  0  0  0
M  END
> <minimizedAffinity>
-7.41988

$$$$



 19 18  0  0  0  0  0  0  0  0999 V2000
  -51.3023   59.2777   62.9124 C   0  0  0  0  0  0  0  0  0  0  0  0
  -50.4935   58.0825   62.4063 C   0  0  0  0  0  0  0  0  0  0  0  0
  -50.6209   57.9872   60.8838 C   0  0  0  0  0  0  0  0  0  0  0  0
  -49.2963   58.3905   60.2346 C   0  0  0  0  0  0  0  0  0  0  0  0
  -48.7496   57.2166   59.4202 C   0  0  0  0  0  0  0  0  0  0  0  0
  -47.7155   57.7307   58.4165 C   0  0  0  0  0  0  0  0  0  0  0  0
  -47.8454   56.9651   57.1249 C   0  0  0  0  0  0  0  0  0  0  0  0
  -47.9142   55.6242   57.1424 O   0  0  0  0  0  0  0  0  0  0  0  0
  -47.8890   57.5569   56.0738 O   0  0  0  0  0  0  0  0  0  0  0  0
  -47.8411   58.4926   56.0606 H   0  0  0  0  0  0  0  0  0  0  0  0
  -50.6873   59.7954   64.2128 C   0  0  0  0  0  0  0  0  0  0  0  0
  -49.5128   60.6849   63.8942 C   0  0  0  0  0  0  0  0  0  0  0  0
  -48.3287   60.4049   64.3791 C   0  0  0  0  0  0  0  0  0  0  0  0
  -48.1049   59.1146   65.1235 C   0  0  0  0  0  0  0  0  0  0  0  0
  -47.8810   59.4133   66.6061 C   0  0  0  0  0  0  0  0  0  0  0  0
  -46.7410   58.5415   67.1358 C   0  0  0  0  0  0  0  0  0  0  0  0
  -46.2271   57.6367   66.0142 C   0  0  0  0  0  0  0  0  0  0  0  0
  -44.7332   57.8864   65.8008 C   0  0  0  0  0  0  0  0  0  0  0  0
  -44.5083   58.4806   64.4094 C   0  0  0  0  0  0  0  0  0  0  0  0
  7  8  2  0  0  0
  7  9  1  0  0  0
  7  6  1  0  0  0
  6  5  1  0  0  0
  5  4  1  0  0  0
  4  3  1  0  0  0
  3  2  1  0  0  0
  2  1  1  0  0  0
  1 11  1  0  0  0
 11 12  1  0  0  0
 12 13  2  0  0  0
 13 14  1  0  0  0
 14 15  1  0  0  0
 15 16  1  0  0  0
 16 17  1  0  0  0
 17 18  1  0  0  0
 18 19  1  0  0  0
  9 10  1  0  0  0
M  END
> <minimizedAffinity>
-7.27063

$$$$



 19 18  0  0  0  0  0  0  0  0999 V2000
  -47.9025   58.3514   66.2381 C   0  0  0  0  0  0  0  0  0  0  0  0
  -46.8340   58.6829   67.2808 C   0  0  0  0  0  0  0  0  0  0  0  0
  -45.4465   58.5692   66.6445 C   0  0  0  0  0  0  0  0  0  0  0  0
  -45.5885   58.4665   65.1252 C   0  0  0  0  0  0  0  0  0  0  0  0
  -44.2526   58.0372   64.5162 C   0  0  0  0  0  0  0  0  0  0  0  0
  -43.3883   57.3810   65.5949 C   0  0  0  0  0  0  0  0  0  0  0  0
  -42.3815   56.4673   64.9449 C   0  0  0  0  0  0  0  0  0  0  0  0
  -41.1574   56.9259   64.6380 O   0  0  0  0  0  0  0  0  0  0  0  0
  -42.6745   55.3220   64.7009 O   0  0  0  0  0  0  0  0  0  0  0  0
  -43.5285   55.0011   64.9147 H   0  0  0  0  0  0  0  0  0  0  0  0
  -49.0021   59.4127   66.2798 C   0  0  0  0  0  0  0  0  0  0  0  0
  -50.2932   58.8187   65.7776 C   0  0  0  0  0  0  0  0  0  0  0  0
  -50.7465   59.1440   64.5925 C   0  0  0  0  0  0  0  0  0  0  0  0
  -49.9054   59.9858   63.6689 C   0  0  0  0  0  0  0  0  0  0  0  0
  -50.1692   59.5730   62.2206 C   0  0  0  0  0  0  0  0  0  0  0  0
  -51.0175   58.3001   62.1992 C   0  0  0  0  0  0  0  0  0  0  0  0
  -50.7253   57.5136   60.9200 C   0  0  0  0  0  0  0  0  0  0  0  0
  -49.8965   58.3772   59.9677 C   0  0  0  0  0  0  0  0  0  0  0  0
  -48.9041   57.4939   59.2098 C   0  0  0  0  0  0  0  0  0  0  0  0
  7  8  2  0  0  0
  7  9  1  0  0  0
  7  6  1  0  0  0
  6  5  1  0  0  0
  5  4  1  0  0  0
  4  3  1  0  0  0
  3  2  1  0  0  0
  2  1  1  0  0  0
  1 11  1  0  0  0
 11 12  1  0  0  0
 12 13  2  0  0  0
 13 14  1  0  0  0
 14 15  1  0  0  0
 15 16  1  0  0  0
 16 17  1  0  0  0
 17 18  1  0  0  0
 18 19  1  0  0  0
  9 10  1  0  0  0
M  END
> <minimizedAffinity>
-7.02664

$$$$



 19 18  0  0  0  0  0  0  0  0999 V2000
  -48.4408   60.3776   64.5887 C   0  0  0  0  0  0  0  0  0  0  0  0
  -48.8559   59.2208   65.4989 C   0  0  0  0  0  0  0  0  0  0  0  0
  -47.8084   58.1074   65.4199 C   0  0  0  0  0  0  0  0  0  0  0  0
  -46.4382   58.7161   65.1185 C   0  0  0  0  0  0  0  0  0  0  0  0
  -45.3432   57.7106   65.4788 C   0  0  0  0  0  0  0  0  0  0  0  0
  -44.1155   57.9576   64.5998 C   0  0  0  0  0  0  0  0  0  0  0  0
  -43.0359   56.9680   64.9552 C   0  0  0  0  0  0  0  0  0  0  0  0
  -41.8468   57.4025   65.4027 O   0  0  0  0  0  0  0  0  0  0  0  0
  -43.2399   55.7840   64.8390 O   0  0  0  0  0  0  0  0  0  0  0  0
  -44.0694   55.4799   64.5268 H   0  0  0  0  0  0  0  0  0  0  0  0
  -49.2498   60.3219   63.2926 C   0  0  0  0  0  0  0  0  0  0  0  0
  -50.5487   59.5989   63.5415 C   0  0  0  0  0  0  0  0  0  0  0  0
  -50.8702   58.5598   62.8117 C   0  0  0  0  0  0  0  0  0  0  0  0
  -49.8778   57.9912   61.8315 C   0  0  0  0  0  0  0  0  0  0  0  0
  -50.5366   57.8575   60.4583 C   0  0  0  0  0  0  0  0  0  0  0  0
  -49.4593   57.8684   59.3722 C   0  0  0  0  0  0  0  0  0  0  0  0
  -48.2692   57.0206   59.8255 C   0  0  0  0  0  0  0  0  0  0  0  0
  -47.3139   56.8115   58.6494 C   0  0  0  0  0  0  0  0  0  0  0  0
  -47.4655   57.9654   57.6568 C   0  0  0  0  0  0  0  0  0  0  0  0
  7  8  2  0  0  0
  7  9  1  0  0  0
  7  6  1  0  0  0
  6  5  1  0  0  0
  5  4  1  0  0  0
  4  3  1  0  0  0
  3  2  1  0  0  0
  2  1  1  0  0  0
  1 11  1  0  0  0
 11 12  1  0  0  0
 12 13  2  0  0  0
 13 14  1  0  0  0
 14 15  1  0  0  0
 15 16  1  0  0  0
 16 17  1  0  0  0
 17 18  1  0  0  0
 18 19  1  0  0  0
  9 10  1  0  0  0
M  END
> <minimizedAffinity>
-6.99795

$$$$



 19 18  0  0  0  0  0  0  0  0999 V2000
  -38.6659   58.6517   60.0256 C   0  0  0  0  0  0  0  0  0  0  0  0
  -37.7300   58.7613   61.2302 C   0  0  0  0  0  0  0  0  0  0  0  0
  -37.7043   57.4271   61.9802 C   0  0  0  0  0  0  0  0  0  0  0  0
  -37.5586   57.6876   63.4801 C   0  0  0  0  0  0  0  0  0  0  0  0
  -38.3093   58.9678   63.8505 C   0  0  0  0  0  0  0  0  0  0  0  0
  -38.5570   58.9945   65.3602 C   0  0  0  0  0  0  0  0  0  0  0  0
  -38.7746   60.4167   65.8085 C   0  0  0  0  0  0  0  0  0  0  0  0
  -37.7719   61.3065   65.7318 O   0  0  0  0  0  0  0  0  0  0  0  0
  -39.8510   60.7574   66.2356 O   0  0  0  0  0  0  0  0  0  0  0  0
  -40.5513   60.1372   66.2895 H   0  0  0  0  0  0  0  0  0  0  0  0
  -40.0839   59.0402   60.4449 C   0  0  0  0  0  0  0  0  0  0  0  0
  -41.0582   58.0069   59.9398 C   0  0  0  0  0  0  0  0  0  0  0  0
  -41.4940   57.0695   60.7440 C   0  0  0  0  0  0  0  0  0  0  0  0
  -41.1476   57.1124   62.2094 C   0  0  0  0  0  0  0  0  0  0  0  0
  -42.3451   57.6378   63.0015 C   0  0  0  0  0  0  0  0  0  0  0  0
  -41.9827   58.9770   63.6459 C   0  0  0  0  0  0  0  0  0  0  0  0
  -42.9174   60.0670   63.1176 C   0  0  0  0  0  0  0  0  0  0  0  0
  -42.0879   61.2141   62.5383 C   0  0  0  0  0  0  0  0  0  0  0  0
  -43.0201   62.3322   62.0687 C   0  0  0  0  0  0  0  0  0  0  0  0
  7  8  2  0  0  0
  7  9  1  0  0  0
  7  6  1  0  0  0
  6  5  1  0  0  0
  5  4  1  0  0  0
  4  3  1  0  0  0
  3  2  1  0  0  0
  2  1  1  0  0  0
  1 11  1  0  0  0
 11 12  1  0  0  0
 12 13  2  0  0  0
 13 14  1  0  0  0
 14 15  1  0  0  0
 15 16  1  0  0  0
 16 17  1  0  0  0
 17 18  1  0  0  0
 18 19  1  0  0  0
  9 10  1  0  0  0
M  END
> <minimizedAffinity>
-6.71568

$$$$



 19 18  0  0  0  0  0  0  0  0999 V2000
  -36.3912   57.6363   64.2199 C   0  0  0  0  0  0  0  0  0  0  0  0
  -37.3306   58.7202   64.7504 C   0  0  0  0  0  0  0  0  0  0  0  0
  -38.5218   58.0645   65.4534 C   0  0  0  0  0  0  0  0  0  0  0  0
  -39.6577   59.0797   65.5868 C   0  0  0  0  0  0  0  0  0  0  0  0
  -41.0016   58.3617   65.4513 C   0  0  0  0  0  0  0  0  0  0  0  0
  -40.8536   57.1807   64.4898 C   0  0  0  0  0  0  0  0  0  0  0  0
  -41.9893   56.2135   64.7036 C   0  0  0  0  0  0  0  0  0  0  0  0
  -43.1859   56.6624   65.1155 O   0  0  0  0  0  0  0  0  0  0  0  0
  -41.8244   55.0346   64.5036 O   0  0  0  0  0  0  0  0  0  0  0  0
  -40.9897   54.7204   64.2162 H   0  0  0  0  0  0  0  0  0  0  0  0
  -36.5023   57.5663   62.6967 C   0  0  0  0  0  0  0  0  0  0  0  0
  -37.8647   57.0461   62.3156 C   0  0  0  0  0  0  0  0  0  0  0  0
  -38.5571   57.6471   61.3802 C   0  0  0  0  0  0  0  0  0  0  0  0
  -37.9334   58.7587   60.5774 C   0  0  0  0  0  0  0  0  0  0  0  0
  -38.8517   59.9809   60.5991 C   0  0  0  0  0  0  0  0  0  0  0  0
  -38.7328   60.6844   61.9523 C   0  0  0  0  0  0  0  0  0  0  0  0
  -40.0952   60.6855   62.6483 C   0  0  0  0  0  0  0  0  0  0  0  0
  -41.1861   60.3329   61.6358 C   0  0  0  0  0  0  0  0  0  0  0  0
  -42.3776   61.2740   61.8201 C   0  0  0  0  0  0  0  0  0  0  0  0
  7  8  2  0  0  0
  7  9  1  0  0  0
  7  6  1  0  0  0
  6  5  1  0  0  0
  5  4  1  0  0  0
  4  3  1  0  0  0
  3  2  1  0  0  0
  2  1  1  0  0  0
  1 11  1  0  0  0
 11 12  1  0  0  0
 12 13  2  0  0  0
 13 14  1  0  0  0
 14 15  1  0  0  0
 15 16  1  0  0  0
 16 17  1  0  0  0
 17 18  1  0  0  0
 18 19  1  0  0  0
  9 10  1  0  0  0
M  END
> <minimizedAffinity>
-6.71519

$$$$



 19 18  0  0  0  0  0  0  0  0999 V2000
  -45.9057   58.8683   64.6980 C   0  0  0  0  0  0  0  0  0  0  0  0
  -45.3467   58.0877   65.8883 C   0  0  0  0  0  0  0  0  0  0  0  0
  -44.0134   57.4453   65.4973 C   0  0  0  0  0  0  0  0  0  0  0  0
  -43.0093   57.6188   66.6377 C   0  0  0  0  0  0  0  0  0  0  0  0
  -42.4058   59.0230   66.5764 C   0  0  0  0  0  0  0  0  0  0  0  0
  -41.0619   58.9685   65.8470 C   0  0  0  0  0  0  0  0  0  0  0  0
  -40.5363   60.3681   65.6572 C   0  0  0  0  0  0  0  0  0  0  0  0
  -39.5720   60.6071   64.7539 O   0  0  0  0  0  0  0  0  0  0  0  0
  -40.9827   61.2755   66.3163 O   0  0  0  0  0  0  0  0  0  0  0  0
  -41.6556   61.1096   66.9469 H   0  0  0  0  0  0  0  0  0  0  0  0
  -47.4327   58.7922   64.7104 C   0  0  0  0  0  0  0  0  0  0  0  0
  -47.9506   59.3049   66.0298 C   0  0  0  0  0  0  0  0  0  0  0  0
  -49.2400   59.4306   66.2229 C   0  0  0  0  0  0  0  0  0  0  0  0
  -50.2102   58.9185   65.1907 C   0  0  0  0  0  0  0  0  0  0  0  0
  -50.8464   60.1001   64.4581 C   0  0  0  0  0  0  0  0  0  0  0  0
  -51.6451   59.5867   63.2587 C   0  0  0  0  0  0  0  0  0  0  0  0
  -50.7618   58.6673   62.4132 C   0  0  0  0  0  0  0  0  0  0  0  0
  -49.7889   59.5113   61.5881 C   0  0  0  0  0  0  0  0  0  0  0  0
  -49.4262   58.7636   60.3040 C   0  0  0  0  0  0  0  0  0  0  0  0
  7  8  2  0  0  0
  7  9  1  0  0  0
  7  6  1  0  0  0
  6  5  1  0  0  0
  5  4  1  0  0  0
  4  3  1  0  0  0
  3  2  1  0  0  0
  2  1  1  0  0  0
  1 11  1  0  0  0
 11 12  1  0  0  0
 12 13  2  0  0  0
 13 14  1  0  0  0
 14 15  1  0  0  0
 15 16  1  0  0  0
 16 17  1  0  0  0
 17 18  1  0  0  0
 18 19  1  0  0  0
  9 10  1  0  0  0
M  END
> <minimizedAffinity>
-6.68870

$$$$



 19 18  0  0  0  0  0  0  0  0999 V2000
  -41.9099   60.7566   61.4222 C   0  0  0  0  0  0  0  0  0  0  0  0
  -41.0221   60.6761   62.6648 C   0  0  0  0  0  0  0  0  0  0  0  0
  -41.7138   59.8249   63.7327 C   0  0  0  0  0  0  0  0  0  0  0  0
  -43.2039   59.7110   63.4083 C   0  0  0  0  0  0  0  0  0  0  0  0
  -43.6446   58.2523   63.5417 C   0  0  0  0  0  0  0  0  0  0  0  0
  -42.4108   57.3478   63.5691 C   0  0  0  0  0  0  0  0  0  0  0  0
  -42.5148   56.3913   64.7290 C   0  0  0  0  0  0  0  0  0  0  0  0
  -41.7130   55.3158   64.7872 O   0  0  0  0  0  0  0  0  0  0  0  0
  -43.3183   56.5920   65.6072 O   0  0  0  0  0  0  0  0  0  0  0  0
  -43.8783   57.3422   65.5674 H   0  0  0  0  0  0  0  0  0  0  0  0
  -41.1895   60.1109   60.2384 C   0  0  0  0  0  0  0  0  0  0  0  0
  -41.6018   58.6653   60.1269 C   0  0  0  0  0  0  0  0  0  0  0  0
  -40.7213   57.7160   60.3251 C   0  0  0  0  0  0  0  0  0  0  0  0
  -39.3396   58.0603   60.8164 C   0  0  0  0  0  0  0  0  0  0  0  0
  -39.0531   57.2967   62.1096 C   0  0  0  0  0  0  0  0  0  0  0  0
  -37.5504   57.3218   62.3948 C   0  0  0  0  0  0  0  0  0  0  0  0
  -37.3135   57.7394   63.8474 C   0  0  0  0  0  0  0  0  0  0  0  0
  -35.8567   57.4675   64.2258 C   0  0  0  0  0  0  0  0  0  0  0  0
  -35.0033   57.4021   62.9581 C   0  0  0  0  0  0  0  0  0  0  0  0
  7  8  2  0  0  0
  7  9  1  0  0  0
  7  6  1  0  0  0
  6  5  1  0  0  0
  5  4  1  0  0  0
  4  3  1  0  0  0
  3  2  1  0  0  0
  2  1  1  0  0  0
  1 11  1  0  0  0
 11 12  1  0  0  0
 12 13  2  0  0  0
 13 14  1  0  0  0
 14 15  1  0  0  0
 15 16  1  0  0  0
 16 17  1  0  0  0
 17 18  1  0  0  0
 18 19  1  0  0  0
  9 10  1  0  0  0
M  END
> <minimizedAffinity>
-6.62591

$$$$



 19 18  0  0  0  0  0  0  0  0999 V2000
  -46.2664   58.3345   66.3787 C   0  0  0  0  0  0  0  0  0  0  0  0
  -45.6910   58.4959   64.9710 C   0  0  0  0  0  0  0  0  0  0  0  0
  -44.2286   58.0437   64.9620 C   0  0  0  0  0  0  0  0  0  0  0  0
  -43.8263   57.5887   66.3655 C   0  0  0  0  0  0  0  0  0  0  0  0
  -42.4401   58.1405   66.7027 C   0  0  0  0  0  0  0  0  0  0  0  0
  -42.5435   59.6411   66.9830 C   0  0  0  0  0  0  0  0  0  0  0  0
  -41.4450   60.3661   66.2490 C   0  0  0  0  0  0  0  0  0  0  0  0
  -41.3479   61.7026   66.3346 O   0  0  0  0  0  0  0  0  0  0  0  0
  -40.6508   59.7457   65.5846 O   0  0  0  0  0  0  0  0  0  0  0  0
  -40.7178   58.8131   65.5244 H   0  0  0  0  0  0  0  0  0  0  0  0
  -47.7693   58.0687   66.2875 C   0  0  0  0  0  0  0  0  0  0  0  0
  -48.5159   59.3764   66.3554 C   0  0  0  0  0  0  0  0  0  0  0  0
  -49.4763   59.6273   65.5009 C   0  0  0  0  0  0  0  0  0  0  0  0
  -49.9412   58.5531   64.5528 C   0  0  0  0  0  0  0  0  0  0  0  0
  -50.8102   59.1777   63.4608 C   0  0  0  0  0  0  0  0  0  0  0  0
  -50.1041   59.0476   62.1100 C   0  0  0  0  0  0  0  0  0  0  0  0
  -50.6914   57.8640   61.3390 C   0  0  0  0  0  0  0  0  0  0  0  0
  -50.3369   57.9937   59.8568 C   0  0  0  0  0  0  0  0  0  0  0  0
  -48.8173   58.0688   59.6997 C   0  0  0  0  0  0  0  0  0  0  0  0
  7  8  2  0  0  0
  7  9  1  0  0  0
  7  6  1  0  0  0
  6  5  1  0  0  0
  5  4  1  0  0  0
  4  3  1  0  0  0
  3  2  1  0  0  0
  2  1  1  0  0  0
  1 11  1  0  0  0
 11 12  1  0  0  0
 12 13  2  0  0  0
 13 14  1  0  0  0
 14 15  1  0  0  0
 15 16  1  0  0  0
 16 17  1  0  0  0
 17 18  1  0  0  0
 18 19  1  0  0  0
  9 10  1  0  0  0
M  END
> <minimizedAffinity>
-6.54616

$$$$
