


 19 18  0  0  0  0  0  0  0  0999 V2000
  -51.5609   59.6642   62.8531 C   0  0  0  0  0  0  0  0  0  0  0  0
  -50.7222   60.4877   63.8314 C   0  0  0  0  0  0  0  0  0  0  0  0
  -49.2394   60.1652   63.6304 C   0  0  0  0  0  0  0  0  0  0  0  0
  -48.4552   60.5695   64.8795 C   0  0  0  0  0  0  0  0  0  0  0  0
  -48.8494   59.6609   66.0452 C   0  0  0  0  0  0  0  0  0  0  0  0
  -48.4957   58.2119   65.7038 C   0  0  0  0  0  0  0  0  0  0  0  0
  -47.4581   57.7064   66.6728 C   0  0  0  0  0  0  0  0  0  0  0  0
  -47.2168   56.3893   66.7726 O   0  0  0  0  0  0  0  0  0  0  0  0
  -46.8424   58.4854   67.3592 O   0  0  0  0  0  0  0  0  0  0  0  0
  -47.0101   59.4047   67.2903 H   0  0  0  0  0  0  0  0  0  0  0  0
  -50.9311   58.2818   62.6801 C   0  0  0  0  0  0  0  0  0  0  0  0
  -51.4728   57.6355   61.4308 C   0  0  0  0  0  0  0  0  0  0  0  0
  -50.7038   57.4956   60.3797 C   0  0  0  0  0  0  0  0  0  0  0  0
  -49.2389   57.8352   60.4669 C   0  0  0  0  0  0  0  0  0  0  0  0
  -48.6204   57.7886   59.0694 C   0  0  0  0  0  0  0  0  0  0  0  0
  -47.1703   57.3114   59.1689 C   0  0  0  0  0  0  0  0  0  0  0  0
  -46.4978   57.4339   57.8002 C   0  0  0  0  0  0  0  0  0  0  0  0
  -47.3635   56.7469   56.7428 C   0  0  0  0  0  0  0  0  0  0  0  0
  -47.4045   55.2423   57.0150 C   0  0  0  0  0  0  0  0  0  0  0  0
  7  8  2  0  0  0
  7  9  1  0  0  0
  7  6  1  0  0  0
  6  5  1  0  0  0
  5  4  1  0  0  0
  4  3  1  0  0  0
  3  2  1  0  0  0
  2  1  1  0  0  0
  1 11  1  0  0  0
 11 12  1  0  0  0
 12 13  2  0  0  0
 13 14  1  0  0  0
 14 15  1  0  0  0
 15 16  1  0  0  0
 16 17  1  0  0  0
 17 18  1  0  0  0
 18 19  1  0  0  0
  9 10  1  0  0  0
M  END
> <minimizedAffinity>
-7.90802

$$$$



 19 18  0  0  0  0  0  0  0  0999 V2000
  -51.4018   57.8716   61.7463 C   0  0  0  0  0  0  0  0  0  0  0  0
  -50.5084   57.1218   60.7572 C   0  0  0  0  0  0  0  0  0  0  0  0
  -49.1753   57.8599   60.6118 C   0  0  0  0  0  0  0  0  0  0  0  0
  -48.8084   57.9642   59.1309 C   0  0  0  0  0  0  0  0  0  0  0  0
  -47.3702   57.4847   58.9270 C   0  0  0  0  0  0  0  0  0  0  0  0
  -47.2090   56.9484   57.5031 C   0  0  0  0  0  0  0  0  0  0  0  0
  -47.4279   55.4573   57.5002 C   0  0  0  0  0  0  0  0  0  0  0  0
  -48.0716   54.8706   58.5221 O   0  0  0  0  0  0  0  0  0  0  0  0
  -47.0258   54.7896   56.5785 O   0  0  0  0  0  0  0  0  0  0  0  0
  -46.5765   55.1982   55.8650 H   0  0  0  0  0  0  0  0  0  0  0  0
  -50.8463   59.2784   61.9696 C   0  0  0  0  0  0  0  0  0  0  0  0
  -51.8073   60.0690   62.8202 C   0  0  0  0  0  0  0  0  0  0  0  0
  -51.5242   60.3103   64.0761 C   0  0  0  0  0  0  0  0  0  0  0  0
  -50.1742   59.9363   64.6298 C   0  0  0  0  0  0  0  0  0  0  0  0
  -50.3327   58.7911   65.6304 C   0  0  0  0  0  0  0  0  0  0  0  0
  -49.0891   57.9012   65.5886 C   0  0  0  0  0  0  0  0  0  0  0  0
  -48.2793   58.2149   64.3291 C   0  0  0  0  0  0  0  0  0  0  0  0
  -46.7900   58.2520   64.6757 C   0  0  0  0  0  0  0  0  0  0  0  0
  -46.4990   59.4742   65.5483 C   0  0  0  0  0  0  0  0  0  0  0  0
  7  8  2  0  0  0
  7  9  1  0  0  0
  7  6  1  0  0  0
  6  5  1  0  0  0
  5  4  1  0  0  0
  4  3  1  0  0  0
  3  2  1  0  0  0
  2  1  1  0  0  0
  1 11  1  0  0  0
 11 12  1  0  0  0
 12 13  2  0  0  0
 13 14  1  0  0  0
 14 15  1  0  0  0
 15 16  1  0  0  0
 16 17  1  0  0  0
 17 18  1  0  0  0
 18 19  1  0  0  0
  9 10  1  0  0  0
M  END
> <minimizedAffinity>
-7.87871

$$$$



 19 18  0  0  0  0  0  0  0  0999 V2000
  -51.4634   58.6086   62.1594 C   0  0  0  0  0  0  0  0  0  0  0  0
  -50.6443   58.3921   63.4326 C   0  0  0  0  0  0  0  0  0  0  0  0
  -49.2273   58.9332   63.2266 C   0  0  0  0  0  0  0  0  0  0  0  0
  -48.7577   59.6330   64.5028 C   0  0  0  0  0  0  0  0  0  0  0  0
  -48.7257   58.6261   65.6540 C   0  0  0  0  0  0  0  0  0  0  0  0
  -47.4227   57.8264   65.5953 C   0  0  0  0  0  0  0  0  0  0  0  0
  -46.7699   57.8292   66.9536 C   0  0  0  0  0  0  0  0  0  0  0  0
  -46.8641   56.7499   67.7467 O   0  0  0  0  0  0  0  0  0  0  0  0
  -46.1609   58.8014   67.3290 O   0  0  0  0  0  0  0  0  0  0  0  0
  -46.0947   59.5551   66.7762 H   0  0  0  0  0  0  0  0  0  0  0  0
  -51.1752   57.4795   61.1697 C   0  0  0  0  0  0  0  0  0  0  0  0
  -50.6910   58.0641   59.8675 C   0  0  0  0  0  0  0  0  0  0  0  0
  -49.4690   57.8294   59.4585 C   0  0  0  0  0  0  0  0  0  0  0  0
  -48.5990   56.8522   60.2048 C   0  0  0  0  0  0  0  0  0  0  0  0
  -48.6021   55.5075   59.4772 C   0  0  0  0  0  0  0  0  0  0  0  0
  -47.3241   55.3736   58.6471 C   0  0  0  0  0  0  0  0  0  0  0  0
  -47.6845   55.3158   57.1614 C   0  0  0  0  0  0  0  0  0  0  0  0
  -47.5435   56.7095   56.5472 C   0  0  0  0  0  0  0  0  0  0  0  0
  -46.4158   57.4661   57.2510 C   0  0  0  0  0  0  0  0  0  0  0  0
  7  8  2  0  0  0
  7  9  1  0  0  0
  7  6  1  0  0  0
  6  5  1  0  0  0
  5  4  1  0  0  0
  4  3  1  0  0  0
  3  2  1  0  0  0
  2  1  1  0  0  0
  1 11  1  0  0  0
 11 12  1  0  0  0
 12 13  2  0  0  0
 13 14  1  0  0  0
 14 15  1  0  0  0
 15 16  1  0  0  0
 16 17  1  0  0  0
 17 18  1  0  0  0
 18 19  1  0  0  0
  9 10  1  0  0  0
M  END
> <minimizedAffinity>
-7.71279

$$$$



 19 18  0  0  0  0  0  0  0  0999 V2000
  -51.3170   60.0166   63.6607 C   0  0  0  0  0  0  0  0  0  0  0  0
  -50.6156   59.0763   64.6419 C   0  0  0  0  0  0  0  0  0  0  0  0
  -49.1769   59.5498   64.8636 C   0  0  0  0  0  0  0  0  0  0  0  0
  -48.2130   58.3903   64.6087 C   0  0  0  0  0  0  0  0  0  0  0  0
  -46.8268   58.7524   65.1447 C   0  0  0  0  0  0  0  0  0  0  0  0
  -45.7779   57.8440   64.5000 C   0  0  0  0  0  0  0  0  0  0  0  0
  -45.2718   56.8578   65.5209 C   0  0  0  0  0  0  0  0  0  0  0  0
  -43.9523   56.6504   65.6585 O   0  0  0  0  0  0  0  0  0  0  0  0
  -46.0523   56.2545   66.2166 O   0  0  0  0  0  0  0  0  0  0  0  0
  -46.9732   56.3985   66.1213 H   0  0  0  0  0  0  0  0  0  0  0  0
  -51.0624   59.5423   62.2297 C   0  0  0  0  0  0  0  0  0  0  0  0
  -51.3221   58.0604   62.1378 C   0  0  0  0  0  0  0  0  0  0  0  0
  -51.0289   57.4111   61.0387 C   0  0  0  0  0  0  0  0  0  0  0  0
  -50.2906   58.1078   59.9258 C   0  0  0  0  0  0  0  0  0  0  0  0
  -48.8488   57.6016   59.8750 C   0  0  0  0  0  0  0  0  0  0  0  0
  -48.8473   56.0760   59.7628 C   0  0  0  0  0  0  0  0  0  0  0  0
  -47.7976   55.6407   58.7386 C   0  0  0  0  0  0  0  0  0  0  0  0
  -47.2606   56.8701   58.0038 C   0  0  0  0  0  0  0  0  0  0  0  0
  -47.4884   56.7064   56.5002 C   0  0  0  0  0  0  0  0  0  0  0  0
  7  8  2  0  0  0
  7  9  1  0  0  0
  7  6  1  0  0  0
  6  5  1  0  0  0
  5  4  1  0  0  0
  4  3  1  0  0  0
  3  2  1  0  0  0
  2  1  1  0  0  0
  1 11  1  0  0  0
 11 12  1  0  0  0
 12 13  2  0  0  0
 13 14  1  0  0  0
 14 15  1  0  0  0
 15 16  1  0  0  0
 16 17  1  0  0  0
 17 18  1  0  0  0
 18 19  1  0  0  0
  9 10  1  0  0  0
M  END
> <minimizedAffinity>
-7.60490

$$$$



 19 18  0  0  0  0  0  0  0  0999 V2000
  -50.0893   58.7299   60.6839 C   0  0  0  0  0  0  0  0  0  0  0  0
  -51.1418   58.2111   61.6646 C   0  0  0  0  0  0  0  0  0  0  0  0
  -51.6780   59.3752   62.5016 C   0  0  0  0  0  0  0  0  0  0  0  0
  -50.6352   59.7755   63.5462 C   0  0  0  0  0  0  0  0  0  0  0  0
  -50.5479   58.6908   64.6212 C   0  0  0  0  0  0  0  0  0  0  0  0
  -49.0926   58.2454   64.7786 C   0  0  0  0  0  0  0  0  0  0  0  0
  -48.5688   58.7037   66.1152 C   0  0  0  0  0  0  0  0  0  0  0  0
  -48.9809   59.8717   66.6340 O   0  0  0  0  0  0  0  0  0  0  0  0
  -47.7793   58.0206   66.7211 O   0  0  0  0  0  0  0  0  0  0  0  0
  -47.4912   57.2055   66.3598 H   0  0  0  0  0  0  0  0  0  0  0  0
  -48.9707   57.6972   60.5433 C   0  0  0  0  0  0  0  0  0  0  0  0
  -49.5717   56.3273   60.3585 C   0  0  0  0  0  0  0  0  0  0  0  0
  -48.9821   55.4528   59.5818 C   0  0  0  0  0  0  0  0  0  0  0  0
  -47.6271   55.7561   58.9979 C   0  0  0  0  0  0  0  0  0  0  0  0
  -47.6356   55.4454   57.5009 C   0  0  0  0  0  0  0  0  0  0  0  0
  -47.3631   56.7274   56.7121 C   0  0  0  0  0  0  0  0  0  0  0  0
  -46.8609   57.8150   57.6637 C   0  0  0  0  0  0  0  0  0  0  0  0
  -45.3947   58.1245   57.3569 C   0  0  0  0  0  0  0  0  0  0  0  0
  -44.5745   58.0407   58.6453 C   0  0  0  0  0  0  0  0  0  0  0  0
  7  8  2  0  0  0
  7  9  1  0  0  0
  7  6  1  0  0  0
  6  5  1  0  0  0
  5  4  1  0  0  0
  4  3  1  0  0  0
  3  2  1  0  0  0
  2  1  1  0  0  0
  1 11  1  0  0  0
 11 12  1  0  0  0
 12 13  2  0  0  0
 13 14  1  0  0  0
 14 15  1  0  0  0
 15 16  1  0  0  0
 16 17  1  0  0  0
 17 18  1  0  0  0
 18 19  1  0  0  0
  9 10  1  0  0  0
M  END
> <minimizedAffinity>
-7.57679

$$$$



 19 18  0  0  0  0  0  0  0  0999 V2000
  -50.8835   59.4773   62.1483 C   0  0  0  0  0  0  0  0  0  0  0  0
  -51.2684   58.0232   61.8725 C   0  0  0  0  0  0  0  0  0  0  0  0
  -50.7207   57.5999   60.5072 C   0  0  0  0  0  0  0  0  0  0  0  0
  -49.2246   57.3058   60.6263 C   0  0  0  0  0  0  0  0  0  0  0  0
  -48.8117   56.3144   59.5370 C   0  0  0  0  0  0  0  0  0  0  0  0
  -48.3405   57.0830   58.3007 C   0  0  0  0  0  0  0  0  0  0  0  0
  -48.0510   56.1116   57.1855 C   0  0  0  0  0  0  0  0  0  0  0  0
  -47.9003   54.8048   57.4547 O   0  0  0  0  0  0  0  0  0  0  0  0
  -47.9556   56.5075   56.0492 O   0  0  0  0  0  0  0  0  0  0  0  0
  -48.0607   57.4193   55.8604 H   0  0  0  0  0  0  0  0  0  0  0  0
  -51.1004   59.7899   63.6291 C   0  0  0  0  0  0  0  0  0  0  0  0
  -50.7259   58.5871   64.4567 C   0  0  0  0  0  0  0  0  0  0  0  0
  -49.6401   58.6082   65.1889 C   0  0  0  0  0  0  0  0  0  0  0  0
  -48.8498   59.8830   65.3284 C   0  0  0  0  0  0  0  0  0  0  0  0
  -47.3552   59.5645   65.2787 C   0  0  0  0  0  0  0  0  0  0  0  0
  -47.1359   58.2646   64.5028 C   0  0  0  0  0  0  0  0  0  0  0  0
  -45.6548   57.8848   64.5516 C   0  0  0  0  0  0  0  0  0  0  0  0
  -45.4183   56.8975   65.6957 C   0  0  0  0  0  0  0  0  0  0  0  0
  -43.9149   56.7182   65.9131 C   0  0  0  0  0  0  0  0  0  0  0  0
  7  8  2  0  0  0
  7  9  1  0  0  0
  7  6  1  0  0  0
  6  5  1  0  0  0
  5  4  1  0  0  0
  4  3  1  0  0  0
  3  2  1  0  0  0
  2  1  1  0  0  0
  1 11  1  0  0  0
 11 12  1  0  0  0
 12 13  2  0  0  0
 13 14  1  0  0  0
 14 15  1  0  0  0
 15 16  1  0  0  0
 16 17  1  0  0  0
 17 18  1  0  0  0
 18 19  1  0  0  0
  9 10  1  0  0  0
M  END
> <minimizedAffinity>
-7.41939

$$$$



 19 18  0  0  0  0  0  0  0  0999 V2000
  -49.5711   60.2656   63.3347 C   0  0  0  0  0  0  0  0  0  0  0  0
  -51.0841   60.2116   63.5506 C   0  0  0  0  0  0  0  0  0  0  0  0
  -51.7247   59.3449   62.4636 C   0  0  0  0  0  0  0  0  0  0  0  0
  -50.9184   58.0560   62.2974 C   0  0  0  0  0  0  0  0  0  0  0  0
  -50.9623   57.6124   60.8342 C   0  0  0  0  0  0  0  0  0  0  0  0
  -49.9721   58.4467   60.0190 C   0  0  0  0  0  0  0  0  0  0  0  0
  -48.8126   57.5808   59.5984 C   0  0  0  0  0  0  0  0  0  0  0  0
  -48.6771   57.2169   58.3130 O   0  0  0  0  0  0  0  0  0  0  0  0
  -48.0042   57.2147   60.4166 O   0  0  0  0  0  0  0  0  0  0  0  0
  -48.0980   57.4681   61.3138 H   0  0  0  0  0  0  0  0  0  0  0  0
  -48.8583   60.0982   64.6769 C   0  0  0  0  0  0  0  0  0  0  0  0
  -49.7544   59.3520   65.6320 C   0  0  0  0  0  0  0  0  0  0  0  0
  -49.5046   58.0991   65.9210 C   0  0  0  0  0  0  0  0  0  0  0  0
  -48.2392   57.4492   65.4255 C   0  0  0  0  0  0  0  0  0  0  0  0
  -47.5094   56.7938   66.5984 C   0  0  0  0  0  0  0  0  0  0  0  0
  -46.0359   57.2043   66.5760 C   0  0  0  0  0  0  0  0  0  0  0  0
  -45.9257   58.7199   66.7527 C   0  0  0  0  0  0  0  0  0  0  0  0
  -45.2914   59.3347   65.5040 C   0  0  0  0  0  0  0  0  0  0  0  0
  -43.7678   59.2985   65.6344 C   0  0  0  0  0  0  0  0  0  0  0  0
  7  8  2  0  0  0
  7  9  1  0  0  0
  7  6  1  0  0  0
  6  5  1  0  0  0
  5  4  1  0  0  0
  4  3  1  0  0  0
  3  2  1  0  0  0
  2  1  1  0  0  0
  1 11  1  0  0  0
 11 12  1  0  0  0
 12 13  2  0  0  0
 13 14  1  0  0  0
 14 15  1  0  0  0
 15 16  1  0  0  0
 16 17  1  0  0  0
 17 18  1  0  0  0
 18 19  1  0  0  0
  9 10  1  0  0  0
M  END
> <minimizedAffinity>
-7.23349

$$$$



 19 18  0  0  0  0  0  0  0  0999 V2000
  -51.2676   59.3415   63.8624 C   0  0  0  0  0  0  0  0  0  0  0  0
  -51.2165   59.4813   62.3403 C   0  0  0  0  0  0  0  0  0  0  0  0
  -50.7236   58.1701   61.7231 C   0  0  0  0  0  0  0  0  0  0  0  0
  -49.8415   58.4760   60.5119 C   0  0  0  0  0  0  0  0  0  0  0  0
  -49.1402   57.1954   60.0557 C   0  0  0  0  0  0  0  0  0  0  0  0
  -48.4380   57.4473   58.7198 C   0  0  0  0  0  0  0  0  0  0  0  0
  -48.1642   56.1305   58.0401 C   0  0  0  0  0  0  0  0  0  0  0  0
  -47.9805   55.0209   58.7736 O   0  0  0  0  0  0  0  0  0  0  0  0
  -48.1109   56.0721   56.8356 O   0  0  0  0  0  0  0  0  0  0  0  0
  -48.2389   56.8459   56.3229 H   0  0  0  0  0  0  0  0  0  0  0  0
  -49.9157   58.8433   64.3741 C   0  0  0  0  0  0  0  0  0  0  0  0
  -49.7452   59.2454   65.8167 C   0  0  0  0  0  0  0  0  0  0  0  0
  -48.6308   59.8087   66.2122 C   0  0  0  0  0  0  0  0  0  0  0  0
  -47.5829   60.1974   65.2023 C   0  0  0  0  0  0  0  0  0  0  0  0
  -46.2588   59.5189   65.5542 C   0  0  0  0  0  0  0  0  0  0  0  0
  -46.1833   58.1570   64.8616 C   0  0  0  0  0  0  0  0  0  0  0  0
  -45.5459   57.1379   65.8080 C   0  0  0  0  0  0  0  0  0  0  0  0
  -46.5107   56.8332   66.9551 C   0  0  0  0  0  0  0  0  0  0  0  0
  -47.7547   56.1342   66.4043 C   0  0  0  0  0  0  0  0  0  0  0  0
  7  8  2  0  0  0
  7  9  1  0  0  0
  7  6  1  0  0  0
  6  5  1  0  0  0
  5  4  1  0  0  0
  4  3  1  0  0  0
  3  2  1  0  0  0
  2  1  1  0  0  0
  1 11  1  0  0  0
 11 12  1  0  0  0
 12 13  2  0  0  0
 13 14  1  0  0  0
 14 15  1  0  0  0
 15 16  1  0  0  0
 16 17  1  0  0  0
 17 18  1  0  0  0
 18 19  1  0  0  0
  9 10  1  0  0  0
M  END
> <minimizedAffinity>
-7.20029

$$$$



 19 18  0  0  0  0  0  0  0  0999 V2000
  -49.1253   60.1225   63.7437 C   0  0  0  0  0  0  0  0  0  0  0  0
  -48.3507   60.3776   65.0374 C   0  0  0  0  0  0  0  0  0  0  0  0
  -48.4368   59.1417   65.9366 C   0  0  0  0  0  0  0  0  0  0  0  0
  -47.0341   58.7530   66.4056 C   0  0  0  0  0  0  0  0  0  0  0  0
  -46.0073   59.1905   65.3595 C   0  0  0  0  0  0  0  0  0  0  0  0
  -45.5240   57.9674   64.5774 C   0  0  0  0  0  0  0  0  0  0  0  0
  -44.5539   57.1822   65.4221 C   0  0  0  0  0  0  0  0  0  0  0  0
  -43.6377   57.8237   66.1651 O   0  0  0  0  0  0  0  0  0  0  0  0
  -44.6007   55.9761   65.4323 O   0  0  0  0  0  0  0  0  0  0  0  0
  -45.2397   55.5277   64.9141 H   0  0  0  0  0  0  0  0  0  0  0  0
  -49.6902   58.7019   63.7596 C   0  0  0  0  0  0  0  0  0  0  0  0
  -51.0363   58.6888   63.0813 C   0  0  0  0  0  0  0  0  0  0  0  0
  -51.1709   58.1313   61.9038 C   0  0  0  0  0  0  0  0  0  0  0  0
  -50.0236   57.3676   61.2959 C   0  0  0  0  0  0  0  0  0  0  0  0
  -49.4220   58.1789   60.1481 C   0  0  0  0  0  0  0  0  0  0  0  0
  -49.3193   57.2995   58.9006 C   0  0  0  0  0  0  0  0  0  0  0  0
  -47.9106   57.4086   58.3139 C   0  0  0  0  0  0  0  0  0  0  0  0
  -47.8539   56.6624   56.9799 C   0  0  0  0  0  0  0  0  0  0  0  0
  -47.4316   55.2126   57.2231 C   0  0  0  0  0  0  0  0  0  0  0  0
  7  8  2  0  0  0
  7  9  1  0  0  0
  7  6  1  0  0  0
  6  5  1  0  0  0
  5  4  1  0  0  0
  4  3  1  0  0  0
  3  2  1  0  0  0
  2  1  1  0  0  0
  1 11  1  0  0  0
 11 12  1  0  0  0
 12 13  2  0  0  0
 13 14  1  0  0  0
 14 15  1  0  0  0
 15 16  1  0  0  0
 16 17  1  0  0  0
 17 18  1  0  0  0
 18 19  1  0  0  0
  9 10  1  0  0  0
M  END
> <minimizedAffinity>
-7.18816

$$$$
