


 37 36  0  0  0  0  0  0  0  0999 V2000
  -42.5345   57.7419   66.9933 O   0  0  0  0  0  0  0  0  0  0  0  0
  -43.0283   57.5203   65.9133 C   0  0  0  0  0  0  0  0  0  0  0  0
  -42.2428   57.2630   64.8553 O   0  0  0  0  0  0  0  0  0  0  0  0
  -42.1459   55.8793   64.4276 C   0  0  0  0  0  0  0  0  0  0  0  0
  -41.2397   55.7875   63.1984 C   0  0  0  0  0  0  0  0  0  0  0  0
  -41.2692   54.4556   62.6818 O   0  0  0  0  0  0  0  0  0  0  0  0
  -42.1776   54.2263   62.4305 H   0  0  0  0  0  0  0  0  0  0  0  0
  -41.7334   56.7611   62.1262 C   0  0  0  0  0  0  0  0  0  0  0  0
  -40.6496   57.1099   61.2635 O   0  0  0  0  0  0  0  0  0  0  0  0
  -39.8657   58.5123   61.3629 P   0  0  0  0  0  0  0  0  0  0  0  0
  -40.2210   59.1877   62.6303 O   0  0  0  0  0  0  0  0  0  0  0  0
  -40.2823   59.4486   60.1207 O   0  0  0  0  0  0  0  0  0  0  0  0
  -39.9701   58.6237   63.3785 H   0  0  0  0  0  0  0  0  0  0  0  0
  -38.2788   58.2442   61.3241 O   0  0  0  0  0  0  0  0  0  0  0  0
  -37.6228   57.3212   62.1964 C   0  0  0  0  0  0  0  0  0  0  0  0
  -36.2023   57.8100   62.4818 C   0  0  0  0  0  0  0  0  0  0  0  0
  -36.1615   58.4527   63.8022 N   0  0  0  0  0  0  0  0  0  0  0  0
  -37.2617   57.9412   64.6301 C   0  0  0  0  0  0  0  0  0  0  0  0
  -34.8792   58.1546   64.4526 C   0  0  0  0  0  0  0  0  0  0  0  0
  -36.3037   59.9066   63.6430 C   0  0  0  0  0  0  0  0  0  0  0  0
  -44.5271   57.5273   65.7553 C   0  0  0  0  0  0  0  0  0  0  0  0
  -44.9114   58.4206   64.5748 C   0  0  0  0  0  0  0  0  0  0  0  0
  -46.3753   58.8442   64.7113 C   0  0  0  0  0  0  0  0  0  0  0  0
  -46.8410   58.6134   66.1508 C   0  0  0  0  0  0  0  0  0  0  0  0
  -48.3183   58.2148   66.1513 C   0  0  0  0  0  0  0  0  0  0  0  0
  -49.1855   59.4737   66.0953 C   0  0  0  0  0  0  0  0  0  0  0  0
  -50.6263   59.0851   65.7571 C   0  0  0  0  0  0  0  0  0  0  0  0
  -51.1860   60.0575   64.7513 C   0  0  0  0  0  0  0  0  0  0  0  0
  -51.1525   59.7717   63.4734 C   0  0  0  0  0  0  0  0  0  0  0  0
  -50.7341   58.3962   63.0202 C   0  0  0  0  0  0  0  0  0  0  0  0
  -49.9720   58.5054   61.6985 C   0  0  0  0  0  0  0  0  0  0  0  0
  -50.6066   57.5714   60.6658 C   0  0  0  0  0  0  0  0  0  0  0  0
  -50.0030   57.8491   59.2878 C   0  0  0  0  0  0  0  0  0  0  0  0
  -48.4770   57.8886   59.3967 C   0  0  0  0  0  0  0  0  0  0  0  0
  -47.9147   56.4806   59.1916 C   0  0  0  0  0  0  0  0  0  0  0  0
  -47.3762   56.3508   57.7649 C   0  0  0  0  0  0  0  0  0  0  0  0
  -46.9586   57.7300   57.2504 C   0  0  0  0  0  0  0  0  0  0  0  0
  1  2  2  0  0  0
  2  3  1  0  0  0
  2 21  1  0  0  0
  3  4  1  0  0  0
  4  5  1  0  0  0
  5  8  1  0  0  0
  5  6  1  0  0  0
  8  9  1  0  0  0
  9 10  1  0  0  0
 10 14  1  0  0  0
 10 12  2  0  0  0
 10 11  1  0  0  0
 14 15  1  0  0  0
 15 16  1  0  0  0
 16 17  1  0  0  0
 17 20  1  0  0  0
 17 18  1  0  0  0
 17 19  1  0  0  0
 21 22  1  0  0  0
 22 23  1  0  0  0
 23 24  1  0  0  0
 24 25  1  0  0  0
 25 26  1  0  0  0
 26 27  1  0  0  0
 27 28  1  0  0  0
 28 29  2  0  0  0
 29 30  1  0  0  0
 30 31  1  0  0  0
 31 32  1  0  0  0
 32 33  1  0  0  0
 33 34  1  0  0  0
 34 35  1  0  0  0
 35 36  1  0  0  0
 36 37  1  0  0  0
 11 13  1  0  0  0
  6  7  1  0  0  0
M  CHG 1  17   1
M  END
> <minimizedAffinity>
-8.30701

$$$$



 37 36  0  0  0  0  0  0  0  0999 V2000
  -42.5373   55.5860   64.6826 O   0  0  0  0  0  0  0  0  0  0  0  0
  -42.3944   56.7689   64.4840 C   0  0  0  0  0  0  0  0  0  0  0  0
  -41.6979   57.1917   63.4168 O   0  0  0  0  0  0  0  0  0  0  0  0
  -42.2786   58.2686   62.6356 C   0  0  0  0  0  0  0  0  0  0  0  0
  -41.2457   59.3829   62.4560 C   0  0  0  0  0  0  0  0  0  0  0  0
  -41.3823   59.9550   61.1538 O   0  0  0  0  0  0  0  0  0  0  0  0
  -42.2742   60.3230   61.0542 H   0  0  0  0  0  0  0  0  0  0  0  0
  -41.4723   60.4645   63.5143 C   0  0  0  0  0  0  0  0  0  0  0  0
  -40.2401   60.7458   64.1799 O   0  0  0  0  0  0  0  0  0  0  0  0
  -39.8755   60.1608   65.6346 P   0  0  0  0  0  0  0  0  0  0  0  0
  -41.0206   60.3630   66.5492 O   0  0  0  0  0  0  0  0  0  0  0  0
  -38.5841   60.9293   66.2134 O   0  0  0  0  0  0  0  0  0  0  0  0
  -41.7985   59.9001   66.2006 H   0  0  0  0  0  0  0  0  0  0  0  0
  -39.5549   58.5877   65.5156 O   0  0  0  0  0  0  0  0  0  0  0  0
  -38.2503   58.0776   65.2309 C   0  0  0  0  0  0  0  0  0  0  0  0
  -38.0837   57.9169   63.7194 C   0  0  0  0  0  0  0  0  0  0  0  0
  -36.7731   58.4413   63.3126 N   0  0  0  0  0  0  0  0  0  0  0  0
  -36.4380   57.9376   61.9741 C   0  0  0  0  0  0  0  0  0  0  0  0
  -36.8191   59.9087   63.2866 C   0  0  0  0  0  0  0  0  0  0  0  0
  -35.7507   58.0002   64.2717 C   0  0  0  0  0  0  0  0  0  0  0  0
  -43.0029   57.7701   65.4318 C   0  0  0  0  0  0  0  0  0  0  0  0
  -44.4793   57.4346   65.6493 C   0  0  0  0  0  0  0  0  0  0  0  0
  -45.3358   58.2506   64.6789 C   0  0  0  0  0  0  0  0  0  0  0  0
  -46.5408   58.8291   65.4244 C   0  0  0  0  0  0  0  0  0  0  0  0
  -47.1374   57.7572   66.3389 C   0  0  0  0  0  0  0  0  0  0  0  0
  -48.6400   57.6424   66.0760 C   0  0  0  0  0  0  0  0  0  0  0  0
  -49.2695   59.0367   66.1005 C   0  0  0  0  0  0  0  0  0  0  0  0
  -50.6601   58.9705   65.5241 C   0  0  0  0  0  0  0  0  0  0  0  0
  -50.9127   59.5081   64.3566 C   0  0  0  0  0  0  0  0  0  0  0  0
  -49.7809   60.0212   63.5032 C   0  0  0  0  0  0  0  0  0  0  0  0
  -49.4755   59.0073   62.3993 C   0  0  0  0  0  0  0  0  0  0  0  0
  -50.7399   58.2075   62.0782 C   0  0  0  0  0  0  0  0  0  0  0  0
  -50.7077   57.7690   60.6129 C   0  0  0  0  0  0  0  0  0  0  0  0
  -49.4743   58.3626   59.9287 C   0  0  0  0  0  0  0  0  0  0  0  0
  -48.8899   57.3387   58.9537 C   0  0  0  0  0  0  0  0  0  0  0  0
  -47.6231   57.9112   58.3135 C   0  0  0  0  0  0  0  0  0  0  0  0
  -47.6110   57.5769   56.8204 C   0  0  0  0  0  0  0  0  0  0  0  0
  1  2  2  0  0  0
  2  3  1  0  0  0
  2 21  1  0  0  0
  3  4  1  0  0  0
  4  5  1  0  0  0
  5  8  1  0  0  0
  5  6  1  0  0  0
  8  9  1  0  0  0
  9 10  1  0  0  0
 10 14  1  0  0  0
 10 12  2  0  0  0
 10 11  1  0  0  0
 14 15  1  0  0  0
 15 16  1  0  0  0
 16 17  1  0  0  0
 17 20  1  0  0  0
 17 18  1  0  0  0
 17 19  1  0  0  0
 21 22  1  0  0  0
 22 23  1  0  0  0
 23 24  1  0  0  0
 24 25  1  0  0  0
 25 26  1  0  0  0
 26 27  1  0  0  0
 27 28  1  0  0  0
 28 29  2  0  0  0
 29 30  1  0  0  0
 30 31  1  0  0  0
 31 32  1  0  0  0
 32 33  1  0  0  0
 33 34  1  0  0  0
 34 35  1  0  0  0
 35 36  1  0  0  0
 36 37  1  0  0  0
 11 13  1  0  0  0
  6  7  1  0  0  0
M  CHG 1  17   1
M  END
> <minimizedAffinity>
-8.13066

$$$$



 37 36  0  0  0  0  0  0  0  0999 V2000
  -41.7987   55.6613   64.8923 O   0  0  0  0  0  0  0  0  0  0  0  0
  -41.8302   56.8466   64.6613 C   0  0  0  0  0  0  0  0  0  0  0  0
  -40.6888   57.5197   64.4453 O   0  0  0  0  0  0  0  0  0  0  0  0
  -40.4128   58.6460   65.3184 C   0  0  0  0  0  0  0  0  0  0  0  0
  -38.9206   58.6772   65.6547 C   0  0  0  0  0  0  0  0  0  0  0  0
  -38.1830   58.0337   64.6138 O   0  0  0  0  0  0  0  0  0  0  0  0
  -38.3344   58.4979   63.7756 H   0  0  0  0  0  0  0  0  0  0  0  0
  -38.4569   60.1295   65.7851 C   0  0  0  0  0  0  0  0  0  0  0  0
  -37.1796   60.2799   65.1634 O   0  0  0  0  0  0  0  0  0  0  0  0
  -36.9473   61.1659   63.8397 P   0  0  0  0  0  0  0  0  0  0  0  0
  -35.8907   60.5463   63.0100 O   0  0  0  0  0  0  0  0  0  0  0  0
  -36.4951   62.6526   64.2622 O   0  0  0  0  0  0  0  0  0  0  0  0
  -36.1631   59.6507   62.7555 H   0  0  0  0  0  0  0  0  0  0  0  0
  -38.3167   61.2410   62.9968 O   0  0  0  0  0  0  0  0  0  0  0  0
  -38.6312   60.3331   61.9384 C   0  0  0  0  0  0  0  0  0  0  0  0
  -40.1183   59.9814   61.9925 C   0  0  0  0  0  0  0  0  0  0  0  0
  -40.5218   59.3629   60.7225 N   0  0  0  0  0  0  0  0  0  0  0  0
  -41.4109   58.2253   60.9926 C   0  0  0  0  0  0  0  0  0  0  0  0
  -41.2280   60.3519   59.8984 C   0  0  0  0  0  0  0  0  0  0  0  0
  -39.3278   58.8919   60.0069 C   0  0  0  0  0  0  0  0  0  0  0  0
  -43.1522   57.5685   64.6101 C   0  0  0  0  0  0  0  0  0  0  0  0
  -43.8411   57.4682   65.9720 C   0  0  0  0  0  0  0  0  0  0  0  0
  -44.5536   58.7865   66.2811 C   0  0  0  0  0  0  0  0  0  0  0  0
  -45.9566   58.4944   66.8184 C   0  0  0  0  0  0  0  0  0  0  0  0
  -46.8644   58.0614   65.6653 C   0  0  0  0  0  0  0  0  0  0  0  0
  -47.2910   59.2922   64.8632 C   0  0  0  0  0  0  0  0  0  0  0  0
  -48.4722   59.9703   65.5603 C   0  0  0  0  0  0  0  0  0  0  0  0
  -49.5224   58.9401   65.8858 C   0  0  0  0  0  0  0  0  0  0  0  0
  -50.7063   59.0118   65.3298 C   0  0  0  0  0  0  0  0  0  0  0  0
  -50.9598   60.0035   64.2232 C   0  0  0  0  0  0  0  0  0  0  0  0
  -51.3819   59.2566   62.9569 C   0  0  0  0  0  0  0  0  0  0  0  0
  -50.2344   58.3593   62.4884 C   0  0  0  0  0  0  0  0  0  0  0  0
  -49.8510   58.7286   61.0541 C   0  0  0  0  0  0  0  0  0  0  0  0
  -48.7225   57.8128   60.5748 C   0  0  0  0  0  0  0  0  0  0  0  0
  -48.8592   57.5809   59.0688 C   0  0  0  0  0  0  0  0  0  0  0  0
  -47.4857   57.2547   58.4776 C   0  0  0  0  0  0  0  0  0  0  0  0
  -47.3824   57.8484   57.0711 C   0  0  0  0  0  0  0  0  0  0  0  0
  1  2  2  0  0  0
  2  3  1  0  0  0
  2 21  1  0  0  0
  3  4  1  0  0  0
  4  5  1  0  0  0
  5  8  1  0  0  0
  5  6  1  0  0  0
  8  9  1  0  0  0
  9 10  1  0  0  0
 10 14  1  0  0  0
 10 12  2  0  0  0
 10 11  1  0  0  0
 14 15  1  0  0  0
 15 16  1  0  0  0
 16 17  1  0  0  0
 17 20  1  0  0  0
 17 18  1  0  0  0
 17 19  1  0  0  0
 21 22  1  0  0  0
 22 23  1  0  0  0
 23 24  1  0  0  0
 24 25  1  0  0  0
 25 26  1  0  0  0
 26 27  1  0  0  0
 27 28  1  0  0  0
 28 29  2  0  0  0
 29 30  1  0  0  0
 30 31  1  0  0  0
 31 32  1  0  0  0
 32 33  1  0  0  0
 33 34  1  0  0  0
 34 35  1  0  0  0
 35 36  1  0  0  0
 36 37  1  0  0  0
 11 13  1  0  0  0
  6  7  1  0  0  0
M  CHG 1  17   1
M  END
> <minimizedAffinity>
-7.96228

$$$$



 37 36  0  0  0  0  0  0  0  0999 V2000
  -36.9102   61.5066   62.9614 O   0  0  0  0  0  0  0  0  0  0  0  0
  -37.1622   61.1192   64.0775 C   0  0  0  0  0  0  0  0  0  0  0  0
  -36.3726   61.4703   65.1050 O   0  0  0  0  0  0  0  0  0  0  0  0
  -35.8889   62.8388   65.1265 C   0  0  0  0  0  0  0  0  0  0  0  0
  -35.9644   63.3842   66.5539 C   0  0  0  0  0  0  0  0  0  0  0  0
  -36.5208   62.3899   67.4162 O   0  0  0  0  0  0  0  0  0  0  0  0
  -35.9591   61.5992   67.4025 H   0  0  0  0  0  0  0  0  0  0  0  0
  -34.5588   63.7486   67.0363 C   0  0  0  0  0  0  0  0  0  0  0  0
  -33.6283   63.5784   65.9658 O   0  0  0  0  0  0  0  0  0  0  0  0
  -32.6173   64.7371   65.4899 P   0  0  0  0  0  0  0  0  0  0  0  0
  -32.3552   65.6576   66.6181 O   0  0  0  0  0  0  0  0  0  0  0  0
  -33.2768   65.5567   64.2706 O   0  0  0  0  0  0  0  0  0  0  0  0
  -31.9580   65.1640   67.3525 H   0  0  0  0  0  0  0  0  0  0  0  0
  -31.2325   64.0752   65.0044 O   0  0  0  0  0  0  0  0  0  0  0  0
  -30.7555   64.1639   63.6598 C   0  0  0  0  0  0  0  0  0  0  0  0
  -30.4733   62.7595   63.1247 C   0  0  0  0  0  0  0  0  0  0  0  0
  -31.4414   62.4340   62.0688 N   0  0  0  0  0  0  0  0  0  0  0  0
  -32.6383   61.8316   62.6706 C   0  0  0  0  0  0  0  0  0  0  0  0
  -31.8167   63.6600   61.3533 C   0  0  0  0  0  0  0  0  0  0  0  0
  -30.8358   61.4827   61.1265 C   0  0  0  0  0  0  0  0  0  0  0  0
  -38.3668   60.2458   64.3169 C   0  0  0  0  0  0  0  0  0  0  0  0
  -38.0321   59.1943   65.3760 C   0  0  0  0  0  0  0  0  0  0  0  0
  -37.7731   57.8490   64.6947 C   0  0  0  0  0  0  0  0  0  0  0  0
  -38.5561   57.7830   63.3814 C   0  0  0  0  0  0  0  0  0  0  0  0
  -37.6609   57.2073   62.2822 C   0  0  0  0  0  0  0  0  0  0  0  0
  -37.0399   58.3519   61.4795 C   0  0  0  0  0  0  0  0  0  0  0  0
  -37.9202   58.6596   60.2664 C   0  0  0  0  0  0  0  0  0  0  0  0
  -38.9134   59.7342   60.6260 C   0  0  0  0  0  0  0  0  0  0  0  0
  -40.1851   59.5679   60.3596 C   0  0  0  0  0  0  0  0  0  0  0  0
  -40.6840   58.2312   59.8728 C   0  0  0  0  0  0  0  0  0  0  0  0
  -41.8979   57.8082   60.7018 C   0  0  0  0  0  0  0  0  0  0  0  0
  -41.4873   56.7059   61.6805 C   0  0  0  0  0  0  0  0  0  0  0  0
  -42.0420   57.0249   63.0701 C   0  0  0  0  0  0  0  0  0  0  0  0
  -42.7103   58.4015   63.0500 C   0  0  0  0  0  0  0  0  0  0  0  0
  -42.0342   59.3115   64.0773 C   0  0  0  0  0  0  0  0  0  0  0  0
  -41.6564   58.4912   65.3128 C   0  0  0  0  0  0  0  0  0  0  0  0
  -42.0148   59.2776   66.5756 C   0  0  0  0  0  0  0  0  0  0  0  0
  1  2  2  0  0  0
  2  3  1  0  0  0
  2 21  1  0  0  0
  3  4  1  0  0  0
  4  5  1  0  0  0
  5  8  1  0  0  0
  5  6  1  0  0  0
  8  9  1  0  0  0
  9 10  1  0  0  0
 10 14  1  0  0  0
 10 12  2  0  0  0
 10 11  1  0  0  0
 14 15  1  0  0  0
 15 16  1  0  0  0
 16 17  1  0  0  0
 17 20  1  0  0  0
 17 18  1  0  0  0
 17 19  1  0  0  0
 21 22  1  0  0  0
 22 23  1  0  0  0
 23 24  1  0  0  0
 24 25  1  0  0  0
 25 26  1  0  0  0
 26 27  1  0  0  0
 27 28  1  0  0  0
 28 29  2  0  0  0
 29 30  1  0  0  0
 30 31  1  0  0  0
 31 32  1  0  0  0
 32 33  1  0  0  0
 33 34  1  0  0  0
 34 35  1  0  0  0
 35 36  1  0  0  0
 36 37  1  0  0  0
 11 13  1  0  0  0
  6  7  1  0  0  0
M  CHG 1  17   1
M  END
> <minimizedAffinity>
-7.93208

$$$$



 37 36  0  0  0  0  0  0  0  0999 V2000
  -42.9976   59.9879   63.0769 O   0  0  0  0  0  0  0  0  0  0  0  0
  -43.0391   58.9322   63.6625 C   0  0  0  0  0  0  0  0  0  0  0  0
  -41.9401   58.1652   63.7439 O   0  0  0  0  0  0  0  0  0  0  0  0
  -42.0261   56.8291   63.1832 C   0  0  0  0  0  0  0  0  0  0  0  0
  -41.4297   56.8276   61.7743 C   0  0  0  0  0  0  0  0  0  0  0  0
  -42.1513   57.7444   60.9494 O   0  0  0  0  0  0  0  0  0  0  0  0
  -42.0881   58.6363   61.3253 H   0  0  0  0  0  0  0  0  0  0  0  0
  -39.9605   57.2500   61.8414 C   0  0  0  0  0  0  0  0  0  0  0  0
  -39.6805   58.1712   60.7861 O   0  0  0  0  0  0  0  0  0  0  0  0
  -38.2696   58.9314   60.6368 P   0  0  0  0  0  0  0  0  0  0  0  0
  -37.9400   59.0833   59.2025 O   0  0  0  0  0  0  0  0  0  0  0  0
  -37.1180   58.0722   61.3640 O   0  0  0  0  0  0  0  0  0  0  0  0
  -38.6336   59.6008   58.7644 H   0  0  0  0  0  0  0  0  0  0  0  0
  -38.3678   60.3849   61.3218 O   0  0  0  0  0  0  0  0  0  0  0  0
  -37.9018   60.6556   62.6457 C   0  0  0  0  0  0  0  0  0  0  0  0
  -38.8850   60.0736   63.6619 C   0  0  0  0  0  0  0  0  0  0  0  0
  -38.1439   59.5599   64.8217 N   0  0  0  0  0  0  0  0  0  0  0  0
  -38.4034   60.4158   65.9869 C   0  0  0  0  0  0  0  0  0  0  0  0
  -38.5804   58.1888   65.1140 C   0  0  0  0  0  0  0  0  0  0  0  0
  -36.7050   59.5628   64.5230 C   0  0  0  0  0  0  0  0  0  0  0  0
  -44.3239   58.4789   64.3068 C   0  0  0  0  0  0  0  0  0  0  0  0
  -44.1396   58.4170   65.8239 C   0  0  0  0  0  0  0  0  0  0  0  0
  -45.5031   58.5340   66.5082 C   0  0  0  0  0  0  0  0  0  0  0  0
  -46.3768   57.3415   66.1120 C   0  0  0  0  0  0  0  0  0  0  0  0
  -47.8359   57.7903   66.0084 C   0  0  0  0  0  0  0  0  0  0  0  0
  -47.9245   59.2967   66.2594 C   0  0  0  0  0  0  0  0  0  0  0  0
  -49.2173   59.8400   65.6473 C   0  0  0  0  0  0  0  0  0  0  0  0
  -48.8841   60.7334   64.4806 C   0  0  0  0  0  0  0  0  0  0  0  0
  -49.2457   60.3921   63.2687 C   0  0  0  0  0  0  0  0  0  0  0  0
  -50.1584   59.2107   63.0598 C   0  0  0  0  0  0  0  0  0  0  0  0
  -49.3592   58.0482   62.4686 C   0  0  0  0  0  0  0  0  0  0  0  0
  -50.0273   57.5765   61.1752 C   0  0  0  0  0  0  0  0  0  0  0  0
  -49.7191   58.5674   60.0511 C   0  0  0  0  0  0  0  0  0  0  0  0
  -48.5480   58.0448   59.2160 C   0  0  0  0  0  0  0  0  0  0  0  0
  -48.4252   56.5311   59.4012 C   0  0  0  0  0  0  0  0  0  0  0  0
  -47.1547   56.0350   58.7070 C   0  0  0  0  0  0  0  0  0  0  0  0
  -47.3195   56.1626   57.1911 C   0  0  0  0  0  0  0  0  0  0  0  0
  1  2  2  0  0  0
  2  3  1  0  0  0
  2 21  1  0  0  0
  3  4  1  0  0  0
  4  5  1  0  0  0
  5  8  1  0  0  0
  5  6  1  0  0  0
  8  9  1  0  0  0
  9 10  1  0  0  0
 10 14  1  0  0  0
 10 12  2  0  0  0
 10 11  1  0  0  0
 14 15  1  0  0  0
 15 16  1  0  0  0
 16 17  1  0  0  0
 17 20  1  0  0  0
 17 18  1  0  0  0
 17 19  1  0  0  0
 21 22  1  0  0  0
 22 23  1  0  0  0
 23 24  1  0  0  0
 24 25  1  0  0  0
 25 26  1  0  0  0
 26 27  1  0  0  0
 27 28  1  0  0  0
 28 29  2  0  0  0
 29 30  1  0  0  0
 30 31  1  0  0  0
 31 32  1  0  0  0
 32 33  1  0  0  0
 33 34  1  0  0  0
 34 35  1  0  0  0
 35 36  1  0  0  0
 36 37  1  0  0  0
 11 13  1  0  0  0
  6  7  1  0  0  0
M  CHG 1  17   1
M  END
> <minimizedAffinity>
-7.91761

$$$$



 37 36  0  0  0  0  0  0  0  0999 V2000
  -41.4638   61.4935   65.8445 O   0  0  0  0  0  0  0  0  0  0  0  0
  -40.7516   60.5423   66.0621 C   0  0  0  0  0  0  0  0  0  0  0  0
  -39.4353   60.7193   66.2580 O   0  0  0  0  0  0  0  0  0  0  0  0
  -38.5351   59.9981   65.3768 C   0  0  0  0  0  0  0  0  0  0  0  0
  -37.4703   60.9564   64.8397 C   0  0  0  0  0  0  0  0  0  0  0  0
  -37.1970   61.9626   65.8167 O   0  0  0  0  0  0  0  0  0  0  0  0
  -36.8735   61.5443   66.6299 H   0  0  0  0  0  0  0  0  0  0  0  0
  -36.1883   60.1777   64.5376 C   0  0  0  0  0  0  0  0  0  0  0  0
  -36.1826   59.7828   63.1647 O   0  0  0  0  0  0  0  0  0  0  0  0
  -35.9866   58.2567   62.6918 P   0  0  0  0  0  0  0  0  0  0  0  0
  -35.9438   57.3739   63.8782 O   0  0  0  0  0  0  0  0  0  0  0  0
  -34.6068   58.1222   61.8726 O   0  0  0  0  0  0  0  0  0  0  0  0
  -36.7749   57.4549   64.3717 H   0  0  0  0  0  0  0  0  0  0  0  0
  -37.2162   57.8256   61.7462 O   0  0  0  0  0  0  0  0  0  0  0  0
  -38.5703   57.7784   62.2017 C   0  0  0  0  0  0  0  0  0  0  0  0
  -39.4232   58.7346   61.3672 C   0  0  0  0  0  0  0  0  0  0  0  0
  -40.7849   58.1971   61.2455 N   0  0  0  0  0  0  0  0  0  0  0  0
  -40.8462   56.8714   61.8751 C   0  0  0  0  0  0  0  0  0  0  0  0
  -41.7299   59.1010   61.9134 C   0  0  0  0  0  0  0  0  0  0  0  0
  -41.1396   58.0808   59.8241 C   0  0  0  0  0  0  0  0  0  0  0  0
  -41.3426   59.1571   66.1189 C   0  0  0  0  0  0  0  0  0  0  0  0
  -42.7335   59.1695   65.4828 C   0  0  0  0  0  0  0  0  0  0  0  0
  -43.6663   58.2546   66.2789 C   0  0  0  0  0  0  0  0  0  0  0  0
  -44.8706   57.8762   65.4135 C   0  0  0  0  0  0  0  0  0  0  0  0
  -46.1615   58.2570   66.1414 C   0  0  0  0  0  0  0  0  0  0  0  0
  -47.1412   58.8828   65.1471 C   0  0  0  0  0  0  0  0  0  0  0  0
  -48.2705   59.5759   65.9122 C   0  0  0  0  0  0  0  0  0  0  0  0
  -49.4322   58.6279   66.0611 C   0  0  0  0  0  0  0  0  0  0  0  0
  -50.5574   58.8655   65.4339 C   0  0  0  0  0  0  0  0  0  0  0  0
  -50.6321   59.9741   64.4152 C   0  0  0  0  0  0  0  0  0  0  0  0
  -51.2633   59.4411   63.1279 C   0  0  0  0  0  0  0  0  0  0  0  0
  -50.4101   58.2957   62.5786 C   0  0  0  0  0  0  0  0  0  0  0  0
  -51.0893   57.7006   61.3436 C   0  0  0  0  0  0  0  0  0  0  0  0
  -50.0528   56.9557   60.4993 C   0  0  0  0  0  0  0  0  0  0  0  0
  -48.9095   57.9067   60.1399 C   0  0  0  0  0  0  0  0  0  0  0  0
  -48.4957   57.6774   58.6844 C   0  0  0  0  0  0  0  0  0  0  0  0
  -47.1810   56.8954   58.6457 C   0  0  0  0  0  0  0  0  0  0  0  0
  1  2  2  0  0  0
  2  3  1  0  0  0
  2 21  1  0  0  0
  3  4  1  0  0  0
  4  5  1  0  0  0
  5  8  1  0  0  0
  5  6  1  0  0  0
  8  9  1  0  0  0
  9 10  1  0  0  0
 10 14  1  0  0  0
 10 12  2  0  0  0
 10 11  1  0  0  0
 14 15  1  0  0  0
 15 16  1  0  0  0
 16 17  1  0  0  0
 17 20  1  0  0  0
 17 18  1  0  0  0
 17 19  1  0  0  0
 21 22  1  0  0  0
 22 23  1  0  0  0
 23 24  1  0  0  0
 24 25  1  0  0  0
 25 26  1  0  0  0
 26 27  1  0  0  0
 27 28  1  0  0  0
 28 29  2  0  0  0
 29 30  1  0  0  0
 30 31  1  0  0  0
 31 32  1  0  0  0
 32 33  1  0  0  0
 33 34  1  0  0  0
 34 35  1  0  0  0
 35 36  1  0  0  0
 36 37  1  0  0  0
 11 13  1  0  0  0
  6  7  1  0  0  0
M  CHG 1  17   1
M  END
> <minimizedAffinity>
-7.90555

$$$$



 37 36  0  0  0  0  0  0  0  0999 V2000
  -35.6642   60.7402   65.6391 O   0  0  0  0  0  0  0  0  0  0  0  0
  -36.6712   61.4023   65.7202 C   0  0  0  0  0  0  0  0  0  0  0  0
  -36.5930   62.7419   65.7639 O   0  0  0  0  0  0  0  0  0  0  0  0
  -36.0705   63.3319   66.9829 C   0  0  0  0  0  0  0  0  0  0  0  0
  -34.6232   63.7733   66.7565 C   0  0  0  0  0  0  0  0  0  0  0  0
  -33.7398   62.6981   67.0809 O   0  0  0  0  0  0  0  0  0  0  0  0
  -33.9367   61.9357   66.5145 H   0  0  0  0  0  0  0  0  0  0  0  0
  -34.4324   64.1649   65.2897 C   0  0  0  0  0  0  0  0  0  0  0  0
  -33.3630   63.4024   64.7278 O   0  0  0  0  0  0  0  0  0  0  0  0
  -33.4631   62.6739   63.2959 P   0  0  0  0  0  0  0  0  0  0  0  0
  -34.7810   62.0139   63.1688 O   0  0  0  0  0  0  0  0  0  0  0  0
  -32.2963   61.5709   63.1727 O   0  0  0  0  0  0  0  0  0  0  0  0
  -35.4839   62.6782   63.2431 H   0  0  0  0  0  0  0  0  0  0  0  0
  -33.2947   63.7660   62.1252 O   0  0  0  0  0  0  0  0  0  0  0  0
  -32.4511   64.9137   62.2454 C   0  0  0  0  0  0  0  0  0  0  0  0
  -30.9996   64.5099   61.9846 C   0  0  0  0  0  0  0  0  0  0  0  0
  -30.1476   65.0170   63.0686 N   0  0  0  0  0  0  0  0  0  0  0  0
  -30.9573   65.8238   63.9911 C   0  0  0  0  0  0  0  0  0  0  0  0
  -29.5558   63.8871   63.7960 C   0  0  0  0  0  0  0  0  0  0  0  0
  -29.0773   65.8488   62.5011 C   0  0  0  0  0  0  0  0  0  0  0  0
  -38.0162   60.7240   65.7667 C   0  0  0  0  0  0  0  0  0  0  0  0
  -38.2518   59.9681   64.4580 C   0  0  0  0  0  0  0  0  0  0  0  0
  -38.2889   58.4642   64.7374 C   0  0  0  0  0  0  0  0  0  0  0  0
  -37.1150   57.7845   64.0286 C   0  0  0  0  0  0  0  0  0  0  0  0
  -37.5384   57.3784   62.6155 C   0  0  0  0  0  0  0  0  0  0  0  0
  -36.7427   58.1906   61.5922 C   0  0  0  0  0  0  0  0  0  0  0  0
  -37.6446   58.5397   60.4065 C   0  0  0  0  0  0  0  0  0  0  0  0
  -38.5973   59.6367   60.8056 C   0  0  0  0  0  0  0  0  0  0  0  0
  -39.8762   59.5212   60.5472 C   0  0  0  0  0  0  0  0  0  0  0  0
  -40.4248   58.2165   60.0284 C   0  0  0  0  0  0  0  0  0  0  0  0
  -41.8352   58.0018   60.5800 C   0  0  0  0  0  0  0  0  0  0  0  0
  -41.7561   57.7042   62.0789 C   0  0  0  0  0  0  0  0  0  0  0  0
  -42.6403   58.6920   62.8424 C   0  0  0  0  0  0  0  0  0  0  0  0
  -41.7845   59.4834   63.8340 C   0  0  0  0  0  0  0  0  0  0  0  0
  -41.7631   60.9576   63.4256 C   0  0  0  0  0  0  0  0  0  0  0  0
  -42.7035   61.1699   62.2370 C   0  0  0  0  0  0  0  0  0  0  0  0
  -43.1690   62.6273   62.2096 C   0  0  0  0  0  0  0  0  0  0  0  0
  1  2  2  0  0  0
  2  3  1  0  0  0
  2 21  1  0  0  0
  3  4  1  0  0  0
  4  5  1  0  0  0
  5  8  1  0  0  0
  5  6  1  0  0  0
  8  9  1  0  0  0
  9 10  1  0  0  0
 10 14  1  0  0  0
 10 12  2  0  0  0
 10 11  1  0  0  0
 14 15  1  0  0  0
 15 16  1  0  0  0
 16 17  1  0  0  0
 17 20  1  0  0  0
 17 18  1  0  0  0
 17 19  1  0  0  0
 21 22  1  0  0  0
 22 23  1  0  0  0
 23 24  1  0  0  0
 24 25  1  0  0  0
 25 26  1  0  0  0
 26 27  1  0  0  0
 27 28  1  0  0  0
 28 29  2  0  0  0
 29 30  1  0  0  0
 30 31  1  0  0  0
 31 32  1  0  0  0
 32 33  1  0  0  0
 33 34  1  0  0  0
 34 35  1  0  0  0
 35 36  1  0  0  0
 36 37  1  0  0  0
 11 13  1  0  0  0
  6  7  1  0  0  0
M  CHG 1  17   1
M  END
> <minimizedAffinity>
-7.87825

$$$$



 37 36  0  0  0  0  0  0  0  0999 V2000
  -42.3911   59.8765   67.0536 O   0  0  0  0  0  0  0  0  0  0  0  0
  -42.2033   58.8516   66.4425 C   0  0  0  0  0  0  0  0  0  0  0  0
  -41.1019   58.7116   65.6876 O   0  0  0  0  0  0  0  0  0  0  0  0
  -40.3522   59.9174   65.3858 C   0  0  0  0  0  0  0  0  0  0  0  0
  -38.8571   59.6467   65.5645 C   0  0  0  0  0  0  0  0  0  0  0  0
  -38.6185   58.2385   65.5232 O   0  0  0  0  0  0  0  0  0  0  0  0
  -38.9099   57.8861   64.6678 H   0  0  0  0  0  0  0  0  0  0  0  0
  -38.0767   60.3292   64.4390 C   0  0  0  0  0  0  0  0  0  0  0  0
  -36.8096   59.6887   64.2811 O   0  0  0  0  0  0  0  0  0  0  0  0
  -36.4412   58.7751   63.0080 P   0  0  0  0  0  0  0  0  0  0  0  0
  -36.8665   57.3810   63.2612 O   0  0  0  0  0  0  0  0  0  0  0  0
  -34.8502   58.8146   62.7621 O   0  0  0  0  0  0  0  0  0  0  0  0
  -37.8249   57.3571   63.4094 H   0  0  0  0  0  0  0  0  0  0  0  0
  -37.1996   59.3393   61.7049 O   0  0  0  0  0  0  0  0  0  0  0  0
  -38.1766   58.5849   60.9841 C   0  0  0  0  0  0  0  0  0  0  0  0
  -39.5039   59.3442   60.9761 C   0  0  0  0  0  0  0  0  0  0  0  0
  -40.6090   58.4012   61.1937 N   0  0  0  0  0  0  0  0  0  0  0  0
  -41.6681   59.0586   61.9707 C   0  0  0  0  0  0  0  0  0  0  0  0
  -41.1479   57.9704   59.8975 C   0  0  0  0  0  0  0  0  0  0  0  0
  -40.1149   57.2307   61.9322 C   0  0  0  0  0  0  0  0  0  0  0  0
  -43.2035   57.7279   66.5322 C   0  0  0  0  0  0  0  0  0  0  0  0
  -43.6642   57.3416   65.1258 C   0  0  0  0  0  0  0  0  0  0  0  0
  -44.5739   58.4383   64.5682 C   0  0  0  0  0  0  0  0  0  0  0  0
  -45.8689   58.4898   65.3823 C   0  0  0  0  0  0  0  0  0  0  0  0
  -47.0397   58.8287   64.4573 C   0  0  0  0  0  0  0  0  0  0  0  0
  -48.2464   59.2516   65.2971 C   0  0  0  0  0  0  0  0  0  0  0  0
  -49.0554   60.3022   64.5337 C   0  0  0  0  0  0  0  0  0  0  0  0
  -50.5267   60.0472   64.7350 C   0  0  0  0  0  0  0  0  0  0  0  0
  -51.2847   59.7368   63.7127 C   0  0  0  0  0  0  0  0  0  0  0  0
  -50.6591   59.4450   62.3726 C   0  0  0  0  0  0  0  0  0  0  0  0
  -50.9355   57.9907   61.9874 C   0  0  0  0  0  0  0  0  0  0  0  0
  -50.6268   57.7897   60.5023 C   0  0  0  0  0  0  0  0  0  0  0  0
  -49.4668   56.8037   60.3513 C   0  0  0  0  0  0  0  0  0  0  0  0
  -48.4972   57.3148   59.2834 C   0  0  0  0  0  0  0  0  0  0  0  0
  -47.7075   56.1382   58.7068 C   0  0  0  0  0  0  0  0  0  0  0  0
  -46.7878   56.6406   57.5914 C   0  0  0  0  0  0  0  0  0  0  0  0
  -47.5403   57.6564   56.7293 C   0  0  0  0  0  0  0  0  0  0  0  0
  1  2  2  0  0  0
  2  3  1  0  0  0
  2 21  1  0  0  0
  3  4  1  0  0  0
  4  5  1  0  0  0
  5  8  1  0  0  0
  5  6  1  0  0  0
  8  9  1  0  0  0
  9 10  1  0  0  0
 10 14  1  0  0  0
 10 12  2  0  0  0
 10 11  1  0  0  0
 14 15  1  0  0  0
 15 16  1  0  0  0
 16 17  1  0  0  0
 17 20  1  0  0  0
 17 18  1  0  0  0
 17 19  1  0  0  0
 21 22  1  0  0  0
 22 23  1  0  0  0
 23 24  1  0  0  0
 24 25  1  0  0  0
 25 26  1  0  0  0
 26 27  1  0  0  0
 27 28  1  0  0  0
 28 29  2  0  0  0
 29 30  1  0  0  0
 30 31  1  0  0  0
 31 32  1  0  0  0
 32 33  1  0  0  0
 33 34  1  0  0  0
 34 35  1  0  0  0
 35 36  1  0  0  0
 36 37  1  0  0  0
 11 13  1  0  0  0
  6  7  1  0  0  0
M  CHG 1  17   1
M  END
> <minimizedAffinity>
-7.81362

$$$$



 37 36  0  0  0  0  0  0  0  0999 V2000
  -42.0302   56.4634   65.0225 O   0  0  0  0  0  0  0  0  0  0  0  0
  -42.5977   57.5018   65.2650 C   0  0  0  0  0  0  0  0  0  0  0  0
  -42.0144   58.4180   66.0542 O   0  0  0  0  0  0  0  0  0  0  0  0
  -40.6884   58.8685   65.6721 C   0  0  0  0  0  0  0  0  0  0  0  0
  -40.8000   59.8490   64.5030 C   0  0  0  0  0  0  0  0  0  0  0  0
  -41.3137   61.0965   64.9734 O   0  0  0  0  0  0  0  0  0  0  0  0
  -40.7145   61.4608   65.6436 H   0  0  0  0  0  0  0  0  0  0  0  0
  -39.4168   60.0673   63.8861 C   0  0  0  0  0  0  0  0  0  0  0  0
  -39.5506   60.2847   62.4805 O   0  0  0  0  0  0  0  0  0  0  0  0
  -38.9011   59.3098   61.3765 P   0  0  0  0  0  0  0  0  0  0  0  0
  -39.3671   59.7087   60.0303 O   0  0  0  0  0  0  0  0  0  0  0  0
  -39.3494   57.7915   61.6717 O   0  0  0  0  0  0  0  0  0  0  0  0
  -39.0971   60.6232   59.8525 H   0  0  0  0  0  0  0  0  0  0  0  0
  -37.2962   59.4177   61.4427 O   0  0  0  0  0  0  0  0  0  0  0  0
  -36.4699   58.4027   62.0174 C   0  0  0  0  0  0  0  0  0  0  0  0
  -36.0575   58.8191   63.4297 C   0  0  0  0  0  0  0  0  0  0  0  0
  -34.6109   59.0732   63.4627 N   0  0  0  0  0  0  0  0  0  0  0  0
  -33.9805   58.4687   62.2817 C   0  0  0  0  0  0  0  0  0  0  0  0
  -34.3677   60.5212   63.4609 C   0  0  0  0  0  0  0  0  0  0  0  0
  -34.0383   58.4817   64.6800 C   0  0  0  0  0  0  0  0  0  0  0  0
  -43.9589   57.7708   64.6766 C   0  0  0  0  0  0  0  0  0  0  0  0
  -44.7701   58.6361   65.6424 C   0  0  0  0  0  0  0  0  0  0  0  0
  -46.0005   57.8581   66.1133 C   0  0  0  0  0  0  0  0  0  0  0  0
  -46.7197   58.6531   67.2056 C   0  0  0  0  0  0  0  0  0  0  0  0
  -47.9441   59.3491   66.6076 C   0  0  0  0  0  0  0  0  0  0  0  0
  -48.4110   58.5828   65.3687 C   0  0  0  0  0  0  0  0  0  0  0  0
  -49.8982   58.2502   65.5059 C   0  0  0  0  0  0  0  0  0  0  0  0
  -50.6963   59.5273   65.5541 C   0  0  0  0  0  0  0  0  0  0  0  0
  -51.2249   60.0124   64.4581 C   0  0  0  0  0  0  0  0  0  0  0  0
  -51.2021   59.2008   63.1879 C   0  0  0  0  0  0  0  0  0  0  0  0
  -50.2256   59.8349   62.1960 C   0  0  0  0  0  0  0  0  0  0  0  0
  -49.2801   58.7604   61.6545 C   0  0  0  0  0  0  0  0  0  0  0  0
  -50.0969   57.6473   60.9955 C   0  0  0  0  0  0  0  0  0  0  0  0
  -49.9184   57.7129   59.4770 C   0  0  0  0  0  0  0  0  0  0  0  0
  -48.4265   57.7091   59.1385 C   0  0  0  0  0  0  0  0  0  0  0  0
  -48.2462   57.4777   57.6364 C   0  0  0  0  0  0  0  0  0  0  0  0
  -46.8050   57.8049   57.2398 C   0  0  0  0  0  0  0  0  0  0  0  0
  1  2  2  0  0  0
  2  3  1  0  0  0
  2 21  1  0  0  0
  3  4  1  0  0  0
  4  5  1  0  0  0
  5  8  1  0  0  0
  5  6  1  0  0  0
  8  9  1  0  0  0
  9 10  1  0  0  0
 10 14  1  0  0  0
 10 12  2  0  0  0
 10 11  1  0  0  0
 14 15  1  0  0  0
 15 16  1  0  0  0
 16 17  1  0  0  0
 17 20  1  0  0  0
 17 18  1  0  0  0
 17 19  1  0  0  0
 21 22  1  0  0  0
 22 23  1  0  0  0
 23 24  1  0  0  0
 24 25  1  0  0  0
 25 26  1  0  0  0
 26 27  1  0  0  0
 27 28  1  0  0  0
 28 29  2  0  0  0
 29 30  1  0  0  0
 30 31  1  0  0  0
 31 32  1  0  0  0
 32 33  1  0  0  0
 33 34  1  0  0  0
 34 35  1  0  0  0
 35 36  1  0  0  0
 36 37  1  0  0  0
 11 13  1  0  0  0
  6  7  1  0  0  0
M  CHG 1  17   1
M  END
> <minimizedAffinity>
-7.80437

$$$$
