


 37 36  0  0  0  0  0  0  0  0999 V2000
  -47.9294   60.0065   66.5254 O   0  0  0  0  0  0  0  0  0  0  0  0
  -48.4884   58.9366   66.4808 C   0  0  0  0  0  0  0  0  0  0  0  0
  -47.8360   57.8218   66.8473 O   0  0  0  0  0  0  0  0  0  0  0  0
  -46.5489   57.9947   67.4957 C   0  0  0  0  0  0  0  0  0  0  0  0
  -45.5809   56.9169   67.0037 C   0  0  0  0  0  0  0  0  0  0  0  0
  -46.2304   56.1020   66.0261 O   0  0  0  0  0  0  0  0  0  0  0  0
  -46.5065   56.6534   65.2774 H   0  0  0  0  0  0  0  0  0  0  0  0
  -44.3521   57.5810   66.3789 C   0  0  0  0  0  0  0  0  0  0  0  0
  -44.6709   58.9243   66.0121 O   0  0  0  0  0  0  0  0  0  0  0  0
  -45.0022   59.3656   64.5000 P   0  0  0  0  0  0  0  0  0  0  0  0
  -45.5604   60.7356   64.4965 O   0  0  0  0  0  0  0  0  0  0  0  0
  -46.0767   58.3466   63.8672 O   0  0  0  0  0  0  0  0  0  0  0  0
  -44.9132   61.3494   64.8777 H   0  0  0  0  0  0  0  0  0  0  0  0
  -43.6522   59.3339   63.6235 O   0  0  0  0  0  0  0  0  0  0  0  0
  -43.4113   58.3677   62.5980 C   0  0  0  0  0  0  0  0  0  0  0  0
  -41.9322   58.3924   62.2107 C   0  0  0  0  0  0  0  0  0  0  0  0
  -41.2272   57.3031   62.8995 N   0  0  0  0  0  0  0  0  0  0  0  0
  -42.1802   56.2356   63.2312 C   0  0  0  0  0  0  0  0  0  0  0  0
  -40.1773   56.7679   62.0235 C   0  0  0  0  0  0  0  0  0  0  0  0
  -40.6195   57.8178   64.1345 C   0  0  0  0  0  0  0  0  0  0  0  0
  -49.9205   58.8543   66.0188 C   0  0  0  0  0  0  0  0  0  0  0  0
  -49.9568   58.6629   64.5017 C   0  0  0  0  0  0  0  0  0  0  0  0
  -50.8262   59.7526   63.8710 C   0  0  0  0  0  0  0  0  0  0  0  0
  -51.1403   59.3789   62.4205 C   0  0  0  0  0  0  0  0  0  0  0  0
  -50.3449   58.1310   62.0316 C   0  0  0  0  0  0  0  0  0  0  0  0
  -50.9833   57.4829   60.8018 C   0  0  0  0  0  0  0  0  0  0  0  0
  -49.9837   57.4936   59.6435 C   0  0  0  0  0  0  0  0  0  0  0  0
  -48.9209   56.4536   59.8873 C   0  0  0  0  0  0  0  0  0  0  0  0
  -48.2442   55.9586   58.8809 C   0  0  0  0  0  0  0  0  0  0  0  0
  -48.3885   56.5619   57.5070 C   0  0  0  0  0  0  0  0  0  0  0  0
  -47.0134   56.6514   56.8432 C   0  0  0  0  0  0  0  0  0  0  0  0
  -46.1513   57.6696   57.5926 C   0  0  0  0  0  0  0  0  0  0  0  0
  -46.8816   59.0128   57.6493 C   0  0  0  0  0  0  0  0  0  0  0  0
  -46.8426   59.5558   59.0795 C   0  0  0  0  0  0  0  0  0  0  0  0
  -47.5695   60.9008   59.1341 C   0  0  0  0  0  0  0  0  0  0  0  0
  -48.4827   60.9361   60.3617 C   0  0  0  0  0  0  0  0  0  0  0  0
  -47.6791   60.5517   61.6058 C   0  0  0  0  0  0  0  0  0  0  0  0
  1  2  2  0  0  0
  2  3  1  0  0  0
  2 21  1  0  0  0
  3  4  1  0  0  0
  4  5  1  0  0  0
  5  8  1  0  0  0
  5  6  1  0  0  0
  8  9  1  0  0  0
  9 10  1  0  0  0
 10 14  1  0  0  0
 10 12  2  0  0  0
 10 11  1  0  0  0
 14 15  1  0  0  0
 15 16  1  0  0  0
 16 17  1  0  0  0
 17 20  1  0  0  0
 17 18  1  0  0  0
 17 19  1  0  0  0
 21 22  1  0  0  0
 22 23  1  0  0  0
 23 24  1  0  0  0
 24 25  1  0  0  0
 25 26  1  0  0  0
 26 27  1  0  0  0
 27 28  1  0  0  0
 28 29  2  0  0  0
 29 30  1  0  0  0
 30 31  1  0  0  0
 31 32  1  0  0  0
 32 33  1  0  0  0
 33 34  1  0  0  0
 34 35  1  0  0  0
 35 36  1  0  0  0
 36 37  1  0  0  0
 11 13  1  0  0  0
  6  7  1  0  0  0
M  CHG 1  17   1
M  END
> <minimizedAffinity>
-7.84208

$$$$



 37 36  0  0  0  0  0  0  0  0999 V2000
  -48.4570   57.1993   65.9000 O   0  0  0  0  0  0  0  0  0  0  0  0
  -48.2708   58.3055   66.3480 C   0  0  0  0  0  0  0  0  0  0  0  0
  -47.1303   58.5834   66.9997 O   0  0  0  0  0  0  0  0  0  0  0  0
  -46.4456   57.4711   67.6330 C   0  0  0  0  0  0  0  0  0  0  0  0
  -45.1944   57.1165   66.8271 C   0  0  0  0  0  0  0  0  0  0  0  0
  -45.5360   56.1817   65.8018 O   0  0  0  0  0  0  0  0  0  0  0  0
  -46.1981   56.5757   65.2126 H   0  0  0  0  0  0  0  0  0  0  0  0
  -44.6209   58.3843   66.1905 C   0  0  0  0  0  0  0  0  0  0  0  0
  -44.5574   58.2192   64.7730 O   0  0  0  0  0  0  0  0  0  0  0  0
  -43.8205   59.2686   63.7999 P   0  0  0  0  0  0  0  0  0  0  0  0
  -44.7048   60.4318   63.5679 O   0  0  0  0  0  0  0  0  0  0  0  0
  -43.4910   58.5560   62.3939 O   0  0  0  0  0  0  0  0  0  0  0  0
  -44.9033   60.8610   64.4148 H   0  0  0  0  0  0  0  0  0  0  0  0
  -42.4502   59.7643   64.4842 O   0  0  0  0  0  0  0  0  0  0  0  0
  -41.2639   60.0457   63.7381 C   0  0  0  0  0  0  0  0  0  0  0  0
  -40.0981   59.2372   64.3087 C   0  0  0  0  0  0  0  0  0  0  0  0
  -39.7509   58.1548   63.3782 N   0  0  0  0  0  0  0  0  0  0  0  0
  -40.5891   56.9813   63.6573 C   0  0  0  0  0  0  0  0  0  0  0  0
  -39.9786   58.6028   61.9985 C   0  0  0  0  0  0  0  0  0  0  0  0
  -38.3358   57.7975   63.5499 C   0  0  0  0  0  0  0  0  0  0  0  0
  -49.3172   59.3755   66.1703 C   0  0  0  0  0  0  0  0  0  0  0  0
  -50.2014   59.0299   64.9710 C   0  0  0  0  0  0  0  0  0  0  0  0
  -51.1390   60.2021   64.6744 C   0  0  0  0  0  0  0  0  0  0  0  0
  -51.5268   60.1832   63.1940 C   0  0  0  0  0  0  0  0  0  0  0  0
  -50.4437   59.4588   62.3921 C   0  0  0  0  0  0  0  0  0  0  0  0
  -49.9077   60.3899   61.3031 C   0  0  0  0  0  0  0  0  0  0  0  0
  -48.3790   60.4149   61.3613 C   0  0  0  0  0  0  0  0  0  0  0  0
  -47.8816   59.1670   62.0436 C   0  0  0  0  0  0  0  0  0  0  0  0
  -46.9448   58.4423   61.4840 C   0  0  0  0  0  0  0  0  0  0  0  0
  -46.2285   58.9525   60.2596 C   0  0  0  0  0  0  0  0  0  0  0  0
  -45.7586   57.7678   59.4139 C   0  0  0  0  0  0  0  0  0  0  0  0
  -46.1418   58.0024   57.9511 C   0  0  0  0  0  0  0  0  0  0  0  0
  -47.5306   58.6405   57.8837 C   0  0  0  0  0  0  0  0  0  0  0  0
  -48.5917   57.5441   57.7669 C   0  0  0  0  0  0  0  0  0  0  0  0
  -49.8222   57.9361   58.5872 C   0  0  0  0  0  0  0  0  0  0  0  0
  -49.9272   57.0263   59.8133 C   0  0  0  0  0  0  0  0  0  0  0  0
  -48.9505   55.8576   59.6658 C   0  0  0  0  0  0  0  0  0  0  0  0
  1  2  2  0  0  0
  2  3  1  0  0  0
  2 21  1  0  0  0
  3  4  1  0  0  0
  4  5  1  0  0  0
  5  8  1  0  0  0
  5  6  1  0  0  0
  8  9  1  0  0  0
  9 10  1  0  0  0
 10 14  1  0  0  0
 10 12  2  0  0  0
 10 11  1  0  0  0
 14 15  1  0  0  0
 15 16  1  0  0  0
 16 17  1  0  0  0
 17 20  1  0  0  0
 17 18  1  0  0  0
 17 19  1  0  0  0
 21 22  1  0  0  0
 22 23  1  0  0  0
 23 24  1  0  0  0
 24 25  1  0  0  0
 25 26  1  0  0  0
 26 27  1  0  0  0
 27 28  1  0  0  0
 28 29  2  0  0  0
 29 30  1  0  0  0
 30 31  1  0  0  0
 31 32  1  0  0  0
 32 33  1  0  0  0
 33 34  1  0  0  0
 34 35  1  0  0  0
 35 36  1  0  0  0
 36 37  1  0  0  0
 11 13  1  0  0  0
  6  7  1  0  0  0
M  CHG 1  17   1
M  END
> <minimizedAffinity>
-7.61554

$$$$



 37 36  0  0  0  0  0  0  0  0999 V2000
  -49.2285   59.8972   66.8846 O   0  0  0  0  0  0  0  0  0  0  0  0
  -49.1524   59.2003   65.9009 C   0  0  0  0  0  0  0  0  0  0  0  0
  -47.9750   58.6583   65.5508 O   0  0  0  0  0  0  0  0  0  0  0  0
  -47.9906   57.2739   65.1146 C   0  0  0  0  0  0  0  0  0  0  0  0
  -47.4152   56.3846   66.2185 C   0  0  0  0  0  0  0  0  0  0  0  0
  -47.4804   55.0163   65.8120 O   0  0  0  0  0  0  0  0  0  0  0  0
  -46.9649   54.8956   64.9992 H   0  0  0  0  0  0  0  0  0  0  0  0
  -45.9573   56.7706   66.4771 C   0  0  0  0  0  0  0  0  0  0  0  0
  -45.1661   56.4374   65.3353 O   0  0  0  0  0  0  0  0  0  0  0  0
  -43.5671   56.6172   65.2935 P   0  0  0  0  0  0  0  0  0  0  0  0
  -42.9450   55.3821   64.7678 O   0  0  0  0  0  0  0  0  0  0  0  0
  -43.0205   56.9023   66.7811 O   0  0  0  0  0  0  0  0  0  0  0  0
  -43.2742   55.2104   63.8717 H   0  0  0  0  0  0  0  0  0  0  0  0
  -43.1910   57.8564   64.3372 O   0  0  0  0  0  0  0  0  0  0  0  0
  -42.6439   57.6917   63.0269 C   0  0  0  0  0  0  0  0  0  0  0  0
  -42.3040   59.0620   62.4397 C   0  0  0  0  0  0  0  0  0  0  0  0
  -40.8719   59.3327   62.6248 N   0  0  0  0  0  0  0  0  0  0  0  0
  -40.1588   58.0675   62.8444 C   0  0  0  0  0  0  0  0  0  0  0  0
  -40.3394   59.9938   61.4266 C   0  0  0  0  0  0  0  0  0  0  0  0
  -40.6864   60.2080   63.7906 C   0  0  0  0  0  0  0  0  0  0  0  0
  -50.3812   58.9348   65.0698 C   0  0  0  0  0  0  0  0  0  0  0  0
  -51.1362   60.2455   64.8426 C   0  0  0  0  0  0  0  0  0  0  0  0
  -51.7167   60.2606   63.4270 C   0  0  0  0  0  0  0  0  0  0  0  0
  -50.9312   59.2892   62.5430 C   0  0  0  0  0  0  0  0  0  0  0  0
  -50.1004   60.0794   61.5299 C   0  0  0  0  0  0  0  0  0  0  0  0
  -48.6309   60.0653   61.9546 C   0  0  0  0  0  0  0  0  0  0  0  0
  -47.7592   60.5375   60.7892 C   0  0  0  0  0  0  0  0  0  0  0  0
  -46.6227   59.5691   60.5872 C   0  0  0  0  0  0  0  0  0  0  0  0
  -46.3451   59.1245   59.3867 C   0  0  0  0  0  0  0  0  0  0  0  0
  -47.0303   59.7233   58.1849 C   0  0  0  0  0  0  0  0  0  0  0  0
  -47.0888   58.6857   57.0625 C   0  0  0  0  0  0  0  0  0  0  0  0
  -46.2097   57.4882   57.4297 C   0  0  0  0  0  0  0  0  0  0  0  0
  -46.8316   56.2079   56.8688 C   0  0  0  0  0  0  0  0  0  0  0  0
  -48.1313   55.9010   57.6162 C   0  0  0  0  0  0  0  0  0  0  0  0
  -47.8180   55.6090   59.0849 C   0  0  0  0  0  0  0  0  0  0  0  0
  -48.6030   56.5758   59.9745 C   0  0  0  0  0  0  0  0  0  0  0  0
  -49.6993   57.2521   59.1486 C   0  0  0  0  0  0  0  0  0  0  0  0
  1  2  2  0  0  0
  2  3  1  0  0  0
  2 21  1  0  0  0
  3  4  1  0  0  0
  4  5  1  0  0  0
  5  8  1  0  0  0
  5  6  1  0  0  0
  8  9  1  0  0  0
  9 10  1  0  0  0
 10 14  1  0  0  0
 10 12  2  0  0  0
 10 11  1  0  0  0
 14 15  1  0  0  0
 15 16  1  0  0  0
 16 17  1  0  0  0
 17 20  1  0  0  0
 17 18  1  0  0  0
 17 19  1  0  0  0
 21 22  1  0  0  0
 22 23  1  0  0  0
 23 24  1  0  0  0
 24 25  1  0  0  0
 25 26  1  0  0  0
 26 27  1  0  0  0
 27 28  1  0  0  0
 28 29  2  0  0  0
 29 30  1  0  0  0
 30 31  1  0  0  0
 31 32  1  0  0  0
 32 33  1  0  0  0
 33 34  1  0  0  0
 34 35  1  0  0  0
 35 36  1  0  0  0
 36 37  1  0  0  0
 11 13  1  0  0  0
  6  7  1  0  0  0
M  CHG 1  17   1
M  END
> <minimizedAffinity>
-7.59586

$$$$



 37 36  0  0  0  0  0  0  0  0999 V2000
  -48.1311   56.4495   66.0063 O   0  0  0  0  0  0  0  0  0  0  0  0
  -48.2243   57.6536   65.9780 C   0  0  0  0  0  0  0  0  0  0  0  0
  -47.1178   58.4120   65.9222 O   0  0  0  0  0  0  0  0  0  0  0  0
  -46.1031   58.1724   66.9322 C   0  0  0  0  0  0  0  0  0  0  0  0
  -44.9019   57.4732   66.2928 C   0  0  0  0  0  0  0  0  0  0  0  0
  -45.2112   56.0951   66.0761 O   0  0  0  0  0  0  0  0  0  0  0  0
  -45.9773   56.0247   65.4853 H   0  0  0  0  0  0  0  0  0  0  0  0
  -44.5766   58.1392   64.9541 C   0  0  0  0  0  0  0  0  0  0  0  0
  -44.1730   57.1441   64.0121 O   0  0  0  0  0  0  0  0  0  0  0  0
  -42.6772   56.5532   63.9472 P   0  0  0  0  0  0  0  0  0  0  0  0
  -42.6480   55.2132   64.5734 O   0  0  0  0  0  0  0  0  0  0  0  0
  -41.6772   57.5370   64.7380 O   0  0  0  0  0  0  0  0  0  0  0  0
  -43.2503   54.6205   64.0971 H   0  0  0  0  0  0  0  0  0  0  0  0
  -42.2119   56.4376   62.4103 O   0  0  0  0  0  0  0  0  0  0  0  0
  -40.8426   56.4958   62.0041 C   0  0  0  0  0  0  0  0  0  0  0  0
  -40.5109   57.9108   61.5287 C   0  0  0  0  0  0  0  0  0  0  0  0
  -39.0604   58.1281   61.6122 N   0  0  0  0  0  0  0  0  0  0  0  0
  -38.7693   59.0819   62.6906 C   0  0  0  0  0  0  0  0  0  0  0  0
  -38.3891   56.8524   61.8918 C   0  0  0  0  0  0  0  0  0  0  0  0
  -38.5727   58.6688   60.3357 C   0  0  0  0  0  0  0  0  0  0  0  0
  -49.5836   58.3039   65.9997 C   0  0  0  0  0  0  0  0  0  0  0  0
  -49.7166   59.2478   64.8034 C   0  0  0  0  0  0  0  0  0  0  0  0
  -49.7342   58.4315   63.5095 C   0  0  0  0  0  0  0  0  0  0  0  0
  -50.8049   58.9893   62.5688 C   0  0  0  0  0  0  0  0  0  0  0  0
  -50.7922   58.2014   61.2572 C   0  0  0  0  0  0  0  0  0  0  0  0
  -49.6175   57.2216   61.2630 C   0  0  0  0  0  0  0  0  0  0  0  0
  -49.4843   56.5778   59.8814 C   0  0  0  0  0  0  0  0  0  0  0  0
  -49.7849   57.6025   58.8184 C   0  0  0  0  0  0  0  0  0  0  0  0
  -49.0535   57.6557   57.7330 C   0  0  0  0  0  0  0  0  0  0  0  0
  -48.0386   56.5763   57.4551 C   0  0  0  0  0  0  0  0  0  0  0  0
  -46.7347   57.2150   56.9741 C   0  0  0  0  0  0  0  0  0  0  0  0
  -46.2667   58.2510   57.9985 C   0  0  0  0  0  0  0  0  0  0  0  0
  -45.6676   57.5352   59.2106 C   0  0  0  0  0  0  0  0  0  0  0  0
  -46.1884   58.1828   60.4956 C   0  0  0  0  0  0  0  0  0  0  0  0
  -46.2418   59.7011   60.3159 C   0  0  0  0  0  0  0  0  0  0  0  0
  -47.5126   60.2467   60.9713 C   0  0  0  0  0  0  0  0  0  0  0  0
  -48.4420   60.8071   59.8927 C   0  0  0  0  0  0  0  0  0  0  0  0
  1  2  2  0  0  0
  2  3  1  0  0  0
  2 21  1  0  0  0
  3  4  1  0  0  0
  4  5  1  0  0  0
  5  8  1  0  0  0
  5  6  1  0  0  0
  8  9  1  0  0  0
  9 10  1  0  0  0
 10 14  1  0  0  0
 10 12  2  0  0  0
 10 11  1  0  0  0
 14 15  1  0  0  0
 15 16  1  0  0  0
 16 17  1  0  0  0
 17 20  1  0  0  0
 17 18  1  0  0  0
 17 19  1  0  0  0
 21 22  1  0  0  0
 22 23  1  0  0  0
 23 24  1  0  0  0
 24 25  1  0  0  0
 25 26  1  0  0  0
 26 27  1  0  0  0
 27 28  1  0  0  0
 28 29  2  0  0  0
 29 30  1  0  0  0
 30 31  1  0  0  0
 31 32  1  0  0  0
 32 33  1  0  0  0
 33 34  1  0  0  0
 34 35  1  0  0  0
 35 36  1  0  0  0
 36 37  1  0  0  0
 11 13  1  0  0  0
  6  7  1  0  0  0
M  CHG 1  17   1
M  END
> <minimizedAffinity>
-7.58117

$$$$



 37 36  0  0  0  0  0  0  0  0999 V2000
  -50.4754   59.6952   66.5324 O   0  0  0  0  0  0  0  0  0  0  0  0
  -49.8174   58.9615   65.8339 C   0  0  0  0  0  0  0  0  0  0  0  0
  -49.2448   57.8673   66.3608 O   0  0  0  0  0  0  0  0  0  0  0  0
  -48.1911   57.2373   65.5862 C   0  0  0  0  0  0  0  0  0  0  0  0
  -47.2772   56.4417   66.5202 C   0  0  0  0  0  0  0  0  0  0  0  0
  -46.5044   55.5141   65.7561 O   0  0  0  0  0  0  0  0  0  0  0  0
  -45.9643   55.9973   65.1112 H   0  0  0  0  0  0  0  0  0  0  0  0
  -46.3400   57.4012   67.2567 C   0  0  0  0  0  0  0  0  0  0  0  0
  -44.9838   57.0631   66.9618 O   0  0  0  0  0  0  0  0  0  0  0  0
  -44.0924   57.8679   65.8901 P   0  0  0  0  0  0  0  0  0  0  0  0
  -42.6860   57.9067   66.3475 O   0  0  0  0  0  0  0  0  0  0  0  0
  -44.6522   59.3711   65.7479 O   0  0  0  0  0  0  0  0  0  0  0  0
  -42.3487   57.0013   66.4331 H   0  0  0  0  0  0  0  0  0  0  0  0
  -44.1721   57.1286   64.4622 O   0  0  0  0  0  0  0  0  0  0  0  0
  -43.0141   56.7230   63.7289 C   0  0  0  0  0  0  0  0  0  0  0  0
  -42.6869   57.7753   62.6687 C   0  0  0  0  0  0  0  0  0  0  0  0
  -41.2308   57.8554   62.4911 N   0  0  0  0  0  0  0  0  0  0  0  0
  -40.8474   59.2452   62.2102 C   0  0  0  0  0  0  0  0  0  0  0  0
  -40.5620   57.4006   63.7166 C   0  0  0  0  0  0  0  0  0  0  0  0
  -40.8276   56.9996   61.3666 C   0  0  0  0  0  0  0  0  0  0  0  0
  -49.6441   59.2719   64.3694 C   0  0  0  0  0  0  0  0  0  0  0  0
  -50.9244   59.9104   63.8284 C   0  0  0  0  0  0  0  0  0  0  0  0
  -51.1460   59.4621   62.3824 C   0  0  0  0  0  0  0  0  0  0  0  0
  -50.2967   58.2213   62.0971 C   0  0  0  0  0  0  0  0  0  0  0  0
  -50.8559   57.4905   60.8746 C   0  0  0  0  0  0  0  0  0  0  0  0
  -50.3345   58.1568   59.6002 C   0  0  0  0  0  0  0  0  0  0  0  0
  -49.6232   57.1147   58.7347 C   0  0  0  0  0  0  0  0  0  0  0  0
  -48.8185   56.1945   59.6157 C   0  0  0  0  0  0  0  0  0  0  0  0
  -47.6796   55.7078   59.1893 C   0  0  0  0  0  0  0  0  0  0  0  0
  -47.0785   56.2148   57.9032 C   0  0  0  0  0  0  0  0  0  0  0  0
  -46.1740   57.4118   58.2011 C   0  0  0  0  0  0  0  0  0  0  0  0
  -46.6044   58.6019   57.3408 C   0  0  0  0  0  0  0  0  0  0  0  0
  -47.0987   59.7326   58.2450 C   0  0  0  0  0  0  0  0  0  0  0  0
  -46.7820   59.3961   59.7039 C   0  0  0  0  0  0  0  0  0  0  0  0
  -47.4866   60.3963   60.6224 C   0  0  0  0  0  0  0  0  0  0  0  0
  -47.0338   60.1674   62.0663 C   0  0  0  0  0  0  0  0  0  0  0  0
  -46.5280   58.7315   62.2201 C   0  0  0  0  0  0  0  0  0  0  0  0
  1  2  2  0  0  0
  2  3  1  0  0  0
  2 21  1  0  0  0
  3  4  1  0  0  0
  4  5  1  0  0  0
  5  8  1  0  0  0
  5  6  1  0  0  0
  8  9  1  0  0  0
  9 10  1  0  0  0
 10 14  1  0  0  0
 10 12  2  0  0  0
 10 11  1  0  0  0
 14 15  1  0  0  0
 15 16  1  0  0  0
 16 17  1  0  0  0
 17 20  1  0  0  0
 17 18  1  0  0  0
 17 19  1  0  0  0
 21 22  1  0  0  0
 22 23  1  0  0  0
 23 24  1  0  0  0
 24 25  1  0  0  0
 25 26  1  0  0  0
 26 27  1  0  0  0
 27 28  1  0  0  0
 28 29  2  0  0  0
 29 30  1  0  0  0
 30 31  1  0  0  0
 31 32  1  0  0  0
 32 33  1  0  0  0
 33 34  1  0  0  0
 34 35  1  0  0  0
 35 36  1  0  0  0
 36 37  1  0  0  0
 11 13  1  0  0  0
  6  7  1  0  0  0
M  CHG 1  17   1
M  END
> <minimizedAffinity>
-7.53125

$$$$



 37 36  0  0  0  0  0  0  0  0999 V2000
  -48.0273   56.5089   65.4844 O   0  0  0  0  0  0  0  0  0  0  0  0
  -48.2728   57.5617   66.0235 C   0  0  0  0  0  0  0  0  0  0  0  0
  -47.2754   58.3123   66.5177 O   0  0  0  0  0  0  0  0  0  0  0  0
  -46.3830   57.6776   67.4705 C   0  0  0  0  0  0  0  0  0  0  0  0
  -45.0299   57.4159   66.8061 C   0  0  0  0  0  0  0  0  0  0  0  0
  -45.1698   56.3831   65.8287 O   0  0  0  0  0  0  0  0  0  0  0  0
  -45.8113   56.6596   65.1556 H   0  0  0  0  0  0  0  0  0  0  0  0
  -44.5379   58.6963   66.1280 C   0  0  0  0  0  0  0  0  0  0  0  0
  -43.1928   58.9616   66.5292 O   0  0  0  0  0  0  0  0  0  0  0  0
  -42.1692   59.8330   65.6438 P   0  0  0  0  0  0  0  0  0  0  0  0
  -41.5725   60.8959   66.4822 O   0  0  0  0  0  0  0  0  0  0  0  0
  -42.9614   60.5025   64.4119 O   0  0  0  0  0  0  0  0  0  0  0  0
  -41.0953   60.4927   67.2242 H   0  0  0  0  0  0  0  0  0  0  0  0
  -41.0032   58.8788   65.0766 O   0  0  0  0  0  0  0  0  0  0  0  0
  -40.9383   58.4535   63.7135 C   0  0  0  0  0  0  0  0  0  0  0  0
  -40.7026   56.9436   63.6605 C   0  0  0  0  0  0  0  0  0  0  0  0
  -41.7330   56.3162   62.8222 N   0  0  0  0  0  0  0  0  0  0  0  0
  -41.3683   56.4615   61.4068 C   0  0  0  0  0  0  0  0  0  0  0  0
  -41.8362   54.8904   63.1577 C   0  0  0  0  0  0  0  0  0  0  0  0
  -43.0260   56.9712   63.0643 C   0  0  0  0  0  0  0  0  0  0  0  0
  -49.6992   58.0349   66.1361 C   0  0  0  0  0  0  0  0  0  0  0  0
  -49.7287   59.5638   66.1647 C   0  0  0  0  0  0  0  0  0  0  0  0
  -49.7619   60.1000   64.7321 C   0  0  0  0  0  0  0  0  0  0  0  0
  -51.2150   60.2309   64.2698 C   0  0  0  0  0  0  0  0  0  0  0  0
  -51.3169   59.8461   62.7924 C   0  0  0  0  0  0  0  0  0  0  0  0
  -50.3728   58.6775   62.5042 C   0  0  0  0  0  0  0  0  0  0  0  0
  -50.7384   58.0471   61.1588 C   0  0  0  0  0  0  0  0  0  0  0  0
  -49.7807   56.9248   60.8529 C   0  0  0  0  0  0  0  0  0  0  0  0
  -49.2969   56.7864   59.6435 C   0  0  0  0  0  0  0  0  0  0  0  0
  -49.5414   57.8542   58.6080 C   0  0  0  0  0  0  0  0  0  0  0  0
  -48.5103   57.7210   57.4860 C   0  0  0  0  0  0  0  0  0  0  0  0
  -47.3274   58.6498   57.7684 C   0  0  0  0  0  0  0  0  0  0  0  0
  -46.0752   57.8134   58.0385 C   0  0  0  0  0  0  0  0  0  0  0  0
  -45.7911   57.7894   59.5420 C   0  0  0  0  0  0  0  0  0  0  0  0
  -46.3285   59.0705   60.1829 C   0  0  0  0  0  0  0  0  0  0  0  0
  -45.7102   59.2423   61.5722 C   0  0  0  0  0  0  0  0  0  0  0  0
  -46.6157   58.5874   62.6175 C   0  0  0  0  0  0  0  0  0  0  0  0
  1  2  2  0  0  0
  2  3  1  0  0  0
  2 21  1  0  0  0
  3  4  1  0  0  0
  4  5  1  0  0  0
  5  8  1  0  0  0
  5  6  1  0  0  0
  8  9  1  0  0  0
  9 10  1  0  0  0
 10 14  1  0  0  0
 10 12  2  0  0  0
 10 11  1  0  0  0
 14 15  1  0  0  0
 15 16  1  0  0  0
 16 17  1  0  0  0
 17 20  1  0  0  0
 17 18  1  0  0  0
 17 19  1  0  0  0
 21 22  1  0  0  0
 22 23  1  0  0  0
 23 24  1  0  0  0
 24 25  1  0  0  0
 25 26  1  0  0  0
 26 27  1  0  0  0
 27 28  1  0  0  0
 28 29  2  0  0  0
 29 30  1  0  0  0
 30 31  1  0  0  0
 31 32  1  0  0  0
 32 33  1  0  0  0
 33 34  1  0  0  0
 34 35  1  0  0  0
 35 36  1  0  0  0
 36 37  1  0  0  0
 11 13  1  0  0  0
  6  7  1  0  0  0
M  CHG 1  17   1
M  END
> <minimizedAffinity>
-7.47538

$$$$



 37 36  0  0  0  0  0  0  0  0999 V2000
  -47.9913   60.2207   66.5468 O   0  0  0  0  0  0  0  0  0  0  0  0
  -47.7641   59.0569   66.7773 C   0  0  0  0  0  0  0  0  0  0  0  0
  -46.6696   58.7111   67.4738 O   0  0  0  0  0  0  0  0  0  0  0  0
  -46.0071   57.4777   67.0905 C   0  0  0  0  0  0  0  0  0  0  0  0
  -45.0435   57.7539   65.9348 C   0  0  0  0  0  0  0  0  0  0  0  0
  -44.1134   58.7678   66.3205 O   0  0  0  0  0  0  0  0  0  0  0  0
  -43.6112   58.4683   67.0945 H   0  0  0  0  0  0  0  0  0  0  0  0
  -44.2844   56.4721   65.5855 C   0  0  0  0  0  0  0  0  0  0  0  0
  -42.9303   56.7928   65.2626 O   0  0  0  0  0  0  0  0  0  0  0  0
  -42.1799   56.2188   63.9593 P   0  0  0  0  0  0  0  0  0  0  0  0
  -42.8844   56.6774   62.7419 O   0  0  0  0  0  0  0  0  0  0  0  0
  -42.1805   54.6091   64.0056 O   0  0  0  0  0  0  0  0  0  0  0  0
  -42.8841   57.6470   62.7140 H   0  0  0  0  0  0  0  0  0  0  0  0
  -40.6618   56.7542   63.9346 O   0  0  0  0  0  0  0  0  0  0  0  0
  -40.2166   57.7951   63.0620 C   0  0  0  0  0  0  0  0  0  0  0  0
  -39.4265   57.1864   61.9029 C   0  0  0  0  0  0  0  0  0  0  0  0
  -38.2445   58.0143   61.6277 N   0  0  0  0  0  0  0  0  0  0  0  0
  -37.0511   57.1600   61.5692 C   0  0  0  0  0  0  0  0  0  0  0  0
  -38.4175   58.7033   60.3426 C   0  0  0  0  0  0  0  0  0  0  0  0
  -38.0833   59.0078   62.6984 C   0  0  0  0  0  0  0  0  0  0  0  0
  -48.7129   57.9935   66.2874 C   0  0  0  0  0  0  0  0  0  0  0  0
  -49.8513   58.6478   65.5030 C   0  0  0  0  0  0  0  0  0  0  0  0
  -49.6960   58.3260   64.0152 C   0  0  0  0  0  0  0  0  0  0  0  0
  -50.6974   59.1543   63.2068 C   0  0  0  0  0  0  0  0  0  0  0  0
  -50.7901   58.5969   61.7849 C   0  0  0  0  0  0  0  0  0  0  0  0
  -49.6669   57.5828   61.5611 C   0  0  0  0  0  0  0  0  0  0  0  0
  -49.8973   56.8514   60.2370 C   0  0  0  0  0  0  0  0  0  0  0  0
  -50.1817   57.8562   59.1508 C   0  0  0  0  0  0  0  0  0  0  0  0
  -49.4463   57.8766   58.0670 C   0  0  0  0  0  0  0  0  0  0  0  0
  -48.4439   56.7790   57.8164 C   0  0  0  0  0  0  0  0  0  0  0  0
  -47.4088   57.2577   56.7970 C   0  0  0  0  0  0  0  0  0  0  0  0
  -46.3742   58.1408   57.4980 C   0  0  0  0  0  0  0  0  0  0  0  0
  -45.8691   57.4336   58.7571 C   0  0  0  0  0  0  0  0  0  0  0  0
  -46.1659   58.2995   59.9835 C   0  0  0  0  0  0  0  0  0  0  0  0
  -46.5749   59.7023   59.5302 C   0  0  0  0  0  0  0  0  0  0  0  0
  -47.3135   60.4096   60.6688 C   0  0  0  0  0  0  0  0  0  0  0  0
  -48.6427   60.9612   60.1487 C   0  0  0  0  0  0  0  0  0  0  0  0
  1  2  2  0  0  0
  2  3  1  0  0  0
  2 21  1  0  0  0
  3  4  1  0  0  0
  4  5  1  0  0  0
  5  8  1  0  0  0
  5  6  1  0  0  0
  8  9  1  0  0  0
  9 10  1  0  0  0
 10 14  1  0  0  0
 10 12  2  0  0  0
 10 11  1  0  0  0
 14 15  1  0  0  0
 15 16  1  0  0  0
 16 17  1  0  0  0
 17 20  1  0  0  0
 17 18  1  0  0  0
 17 19  1  0  0  0
 21 22  1  0  0  0
 22 23  1  0  0  0
 23 24  1  0  0  0
 24 25  1  0  0  0
 25 26  1  0  0  0
 26 27  1  0  0  0
 27 28  1  0  0  0
 28 29  2  0  0  0
 29 30  1  0  0  0
 30 31  1  0  0  0
 31 32  1  0  0  0
 32 33  1  0  0  0
 33 34  1  0  0  0
 34 35  1  0  0  0
 35 36  1  0  0  0
 36 37  1  0  0  0
 11 13  1  0  0  0
  6  7  1  0  0  0
M  CHG 1  17   1
M  END
> <minimizedAffinity>
-7.46430

$$$$



 37 36  0  0  0  0  0  0  0  0999 V2000
  -47.6587   55.9213   66.0850 O   0  0  0  0  0  0  0  0  0  0  0  0
  -47.6476   57.1170   65.9138 C   0  0  0  0  0  0  0  0  0  0  0  0
  -46.6280   57.8536   66.3833 O   0  0  0  0  0  0  0  0  0  0  0  0
  -45.6594   57.1765   67.2261 C   0  0  0  0  0  0  0  0  0  0  0  0
  -44.3475   57.0034   66.4582 C   0  0  0  0  0  0  0  0  0  0  0  0
  -44.5396   56.0765   65.3878 O   0  0  0  0  0  0  0  0  0  0  0  0
  -45.2227   56.4133   64.7872 H   0  0  0  0  0  0  0  0  0  0  0  0
  -43.9065   58.3540   65.8900 C   0  0  0  0  0  0  0  0  0  0  0  0
  -42.4820   58.4493   65.9382 O   0  0  0  0  0  0  0  0  0  0  0  0
  -41.5427   58.2051   64.6540 P   0  0  0  0  0  0  0  0  0  0  0  0
  -41.9129   59.1568   63.5835 O   0  0  0  0  0  0  0  0  0  0  0  0
  -41.7406   56.6974   64.1238 O   0  0  0  0  0  0  0  0  0  0  0  0
  -41.7937   60.0649   63.9028 H   0  0  0  0  0  0  0  0  0  0  0  0
  -40.0027   58.4315   65.0645 O   0  0  0  0  0  0  0  0  0  0  0  0
  -38.9973   58.8295   64.1295 C   0  0  0  0  0  0  0  0  0  0  0  0
  -38.7451   57.6940   63.1369 C   0  0  0  0  0  0  0  0  0  0  0  0
  -38.4142   58.2578   61.8213 N   0  0  0  0  0  0  0  0  0  0  0  0
  -38.2354   59.7107   61.9421 C   0  0  0  0  0  0  0  0  0  0  0  0
  -37.1722   57.6507   61.3265 C   0  0  0  0  0  0  0  0  0  0  0  0
  -39.5066   57.9756   60.8796 C   0  0  0  0  0  0  0  0  0  0  0  0
  -48.7763   57.7810   65.1678 C   0  0  0  0  0  0  0  0  0  0  0  0
  -49.9776   57.9443   66.1004 C   0  0  0  0  0  0  0  0  0  0  0  0
  -50.4381   59.4033   66.0879 C   0  0  0  0  0  0  0  0  0  0  0  0
  -50.1770   60.0090   64.7069 C   0  0  0  0  0  0  0  0  0  0  0  0
  -51.4881   60.5460   64.1292 C   0  0  0  0  0  0  0  0  0  0  0  0
  -51.7177   59.9443   62.7417 C   0  0  0  0  0  0  0  0  0  0  0  0
  -50.4087   59.3450   62.2233 C   0  0  0  0  0  0  0  0  0  0  0  0
  -50.6427   57.9184   61.7986 C   0  0  0  0  0  0  0  0  0  0  0  0
  -50.4972   57.5755   60.5428 C   0  0  0  0  0  0  0  0  0  0  0  0
  -49.9115   58.5549   59.5578 C   0  0  0  0  0  0  0  0  0  0  0  0
  -49.7886   57.8868   58.1873 C   0  0  0  0  0  0  0  0  0  0  0  0
  -48.5677   56.9643   58.1780 C   0  0  0  0  0  0  0  0  0  0  0  0
  -47.8669   57.0593   56.8214 C   0  0  0  0  0  0  0  0  0  0  0  0
  -46.4397   57.5754   57.0184 C   0  0  0  0  0  0  0  0  0  0  0  0
  -46.3497   58.3314   58.3454 C   0  0  0  0  0  0  0  0  0  0  0  0
  -45.5744   57.4878   59.3600 C   0  0  0  0  0  0  0  0  0  0  0  0
  -45.5333   58.2177   60.7042 C   0  0  0  0  0  0  0  0  0  0  0  0
  1  2  2  0  0  0
  2  3  1  0  0  0
  2 21  1  0  0  0
  3  4  1  0  0  0
  4  5  1  0  0  0
  5  8  1  0  0  0
  5  6  1  0  0  0
  8  9  1  0  0  0
  9 10  1  0  0  0
 10 14  1  0  0  0
 10 12  2  0  0  0
 10 11  1  0  0  0
 14 15  1  0  0  0
 15 16  1  0  0  0
 16 17  1  0  0  0
 17 20  1  0  0  0
 17 18  1  0  0  0
 17 19  1  0  0  0
 21 22  1  0  0  0
 22 23  1  0  0  0
 23 24  1  0  0  0
 24 25  1  0  0  0
 25 26  1  0  0  0
 26 27  1  0  0  0
 27 28  1  0  0  0
 28 29  2  0  0  0
 29 30  1  0  0  0
 30 31  1  0  0  0
 31 32  1  0  0  0
 32 33  1  0  0  0
 33 34  1  0  0  0
 34 35  1  0  0  0
 35 36  1  0  0  0
 36 37  1  0  0  0
 11 13  1  0  0  0
  6  7  1  0  0  0
M  CHG 1  17   1
M  END
> <minimizedAffinity>
-7.36966

$$$$



 37 36  0  0  0  0  0  0  0  0999 V2000
  -47.6614   55.5332   66.0012 O   0  0  0  0  0  0  0  0  0  0  0  0
  -47.5765   56.7306   66.1367 C   0  0  0  0  0  0  0  0  0  0  0  0
  -46.6921   57.2476   67.0045 O   0  0  0  0  0  0  0  0  0  0  0  0
  -45.2852   57.0931   66.6821 C   0  0  0  0  0  0  0  0  0  0  0  0
  -44.8421   58.2385   65.7698 C   0  0  0  0  0  0  0  0  0  0  0  0
  -45.2937   59.4816   66.3105 O   0  0  0  0  0  0  0  0  0  0  0  0
  -44.9130   59.6073   67.1938 H   0  0  0  0  0  0  0  0  0  0  0  0
  -43.3152   58.2505   65.6703 C   0  0  0  0  0  0  0  0  0  0  0  0
  -42.8348   56.9106   65.5494 O   0  0  0  0  0  0  0  0  0  0  0  0
  -42.4175   56.2522   64.1411 P   0  0  0  0  0  0  0  0  0  0  0  0
  -43.1896   56.8878   63.0509 O   0  0  0  0  0  0  0  0  0  0  0  0
  -42.7333   54.6734   64.1727 O   0  0  0  0  0  0  0  0  0  0  0  0
  -42.9994   57.8387   63.0318 H   0  0  0  0  0  0  0  0  0  0  0  0
  -40.8441   56.4795   63.8875 O   0  0  0  0  0  0  0  0  0  0  0  0
  -40.3356   57.4103   62.9292 C   0  0  0  0  0  0  0  0  0  0  0  0
  -39.6022   58.5395   63.6538 C   0  0  0  0  0  0  0  0  0  0  0  0
  -39.8857   59.8163   62.9848 N   0  0  0  0  0  0  0  0  0  0  0  0
  -41.0907   60.4189   63.5699 C   0  0  0  0  0  0  0  0  0  0  0  0
  -38.7469   60.7261   63.1626 C   0  0  0  0  0  0  0  0  0  0  0  0
  -40.1039   59.5791   61.5510 C   0  0  0  0  0  0  0  0  0  0  0  0
  -48.4602   57.6441   65.3269 C   0  0  0  0  0  0  0  0  0  0  0  0
  -49.7953   57.8338   66.0486 C   0  0  0  0  0  0  0  0  0  0  0  0
  -50.1626   59.3191   66.0591 C   0  0  0  0  0  0  0  0  0  0  0  0
  -49.9054   59.9181   64.6745 C   0  0  0  0  0  0  0  0  0  0  0  0
  -51.2327   60.0646   63.9275 C   0  0  0  0  0  0  0  0  0  0  0  0
  -51.0111   59.7961   62.4379 C   0  0  0  0  0  0  0  0  0  0  0  0
  -50.3737   58.4168   62.2581 C   0  0  0  0  0  0  0  0  0  0  0  0
  -50.9129   57.7733   61.0069 C   0  0  0  0  0  0  0  0  0  0  0  0
  -50.1051   57.1350   60.1970 C   0  0  0  0  0  0  0  0  0  0  0  0
  -48.6777   56.8764   60.6066 C   0  0  0  0  0  0  0  0  0  0  0  0
  -47.8399   56.5660   59.3651 C   0  0  0  0  0  0  0  0  0  0  0  0
  -46.4987   57.2965   59.4600 C   0  0  0  0  0  0  0  0  0  0  0  0
  -46.2077   58.0030   58.1345 C   0  0  0  0  0  0  0  0  0  0  0  0
  -47.3569   58.9568   57.8007 C   0  0  0  0  0  0  0  0  0  0  0  0
  -47.1859   60.2567   58.5891 C   0  0  0  0  0  0  0  0  0  0  0  0
  -48.3071   60.3751   59.6241 C   0  0  0  0  0  0  0  0  0  0  0  0
  -47.7157   60.8024   60.9692 C   0  0  0  0  0  0  0  0  0  0  0  0
  1  2  2  0  0  0
  2  3  1  0  0  0
  2 21  1  0  0  0
  3  4  1  0  0  0
  4  5  1  0  0  0
  5  8  1  0  0  0
  5  6  1  0  0  0
  8  9  1  0  0  0
  9 10  1  0  0  0
 10 14  1  0  0  0
 10 12  2  0  0  0
 10 11  1  0  0  0
 14 15  1  0  0  0
 15 16  1  0  0  0
 16 17  1  0  0  0
 17 20  1  0  0  0
 17 18  1  0  0  0
 17 19  1  0  0  0
 21 22  1  0  0  0
 22 23  1  0  0  0
 23 24  1  0  0  0
 24 25  1  0  0  0
 25 26  1  0  0  0
 26 27  1  0  0  0
 27 28  1  0  0  0
 28 29  2  0  0  0
 29 30  1  0  0  0
 30 31  1  0  0  0
 31 32  1  0  0  0
 32 33  1  0  0  0
 33 34  1  0  0  0
 34 35  1  0  0  0
 35 36  1  0  0  0
 36 37  1  0  0  0
 11 13  1  0  0  0
  6  7  1  0  0  0
M  CHG 1  17   1
M  END
> <minimizedAffinity>
-7.31104

$$$$
