


 25 25  0  0  0  0  0  0  0  0999 V2000
  -48.5940   60.4347   61.0961 C   0  0  0  0  0  0  0  0  0  0  0  0
  -47.5058   61.2555   60.3883 C   0  0  0  0  0  0  0  0  0  0  0  0
  -46.1344   60.9239   60.9605 C   0  0  0  0  0  0  0  0  0  0  0  0
  -45.4627   62.2088   61.4462 C   0  0  0  0  0  0  0  0  0  0  0  0
  -45.9032   62.5258   62.8751 C   0  0  0  0  0  0  0  0  0  0  0  0
  -46.1488   60.4905   64.5702 C   0  0  0  0  0  0  0  0  0  0  0  0
  -45.2631   61.4909   63.8021 C   0  0  0  0  0  0  0  0  0  0  0  0
  -47.6830   60.5662   64.5381 C   0  0  0  0  0  0  0  0  0  0  0  0
  -48.1766   60.3821   65.9806 C   0  0  0  0  0  0  0  0  0  0  0  0
  -49.5425   59.7293   66.3017 C   0  0  0  0  0  0  0  0  0  0  0  0
  -50.4685   59.1947   65.1916 C   0  0  0  0  0  0  0  0  0  0  0  0
  -51.7014   60.1857   63.2102 C   0  0  0  0  0  0  0  0  0  0  0  0
  -51.2960   60.3788   64.6734 C   0  0  0  0  0  0  0  0  0  0  0  0
  -49.0721   59.2103   60.2733 C   0  0  0  0  0  0  0  0  0  0  0  0
  -48.1394   57.9836   60.4100 C   0  0  0  0  0  0  0  0  0  0  0  0
  -46.2875   57.8995   57.1977 C   0  0  0  0  0  0  0  0  0  0  0  0
  -46.6873   56.6695   56.6587 C   0  0  0  0  0  0  0  0  0  0  0  0
  -46.7796   58.3216   58.4385 C   0  0  0  0  0  0  0  0  0  0  0  0
  -47.5783   55.8777   57.3829 C   0  0  0  0  0  0  0  0  0  0  0  0
  -48.0582   56.3004   58.6214 C   0  0  0  0  0  0  0  0  0  0  0  0
  -47.6471   57.5155   59.1842 C   0  0  0  0  0  0  0  0  0  0  0  0
  -48.0154   54.6769   56.9303 O   0  0  0  0  0  0  0  0  0  0  0  0
  -48.9221   55.4890   59.2976 O   0  0  0  0  0  0  0  0  0  0  0  0
  -47.7194   54.3522   56.1028 H   0  0  0  0  0  0  0  0  0  0  0  0
  -49.1955   54.6768   58.9189 H   0  0  0  0  0  0  0  0  0  0  0  0
 12 13  1  0  0  0
  9 10  2  0  0  0
  9  8  1  0  0  0
  6  7  2  0  0  0
  6  8  1  0  0  0
 10 11  1  0  0  0
  7  5  1  0  0  0
 16 17  2  0  0  0
 16 18  1  0  0  0
 17 19  1  0  0  0
 18 21  2  0  0  0
 13 11  1  0  0  0
  5  4  1  0  0  0
  4  3  1  0  0  0
  3  2  1  0  0  0
  2  1  1  0  0  0
  1 14  1  0  0  0
 14 15  1  0  0  0
 15 21  1  0  0  0
 19 20  2  0  0  0
 19 22  1  0  0  0
 20 21  1  0  0  0
 20 23  1  0  0  0
 22 24  1  0  0  0
 23 25  1  0  0  0
M  END
> <minimizedAffinity>
-8.44853

> <CNNscore>
0.5459464192

> <CNNaffinity>
6.6990137100

> <CNN_VS>
3.6573026180

> <CNNaffinity_variance>
0.0182077531

$$$$



 25 25  0  0  0  0  0  0  0  0999 V2000
  -49.0903   60.0974   61.3652 C   0  0  0  0  0  0  0  0  0  0  0  0
  -49.9319   59.2061   62.2906 C   0  0  0  0  0  0  0  0  0  0  0  0
  -51.1514   59.9658   62.7943 C   0  0  0  0  0  0  0  0  0  0  0  0
  -51.0808   60.0871   64.3169 C   0  0  0  0  0  0  0  0  0  0  0  0
  -50.1104   59.0508   64.8834 C   0  0  0  0  0  0  0  0  0  0  0  0
  -48.2021   60.5037   66.0338 C   0  0  0  0  0  0  0  0  0  0  0  0
  -49.4762   59.6435   66.1430 C   0  0  0  0  0  0  0  0  0  0  0  0
  -47.4583   60.6961   64.7032 C   0  0  0  0  0  0  0  0  0  0  0  0
  -45.9618   60.5015   64.9877 C   0  0  0  0  0  0  0  0  0  0  0  0
  -45.2868   59.1113   64.9068 C   0  0  0  0  0  0  0  0  0  0  0  0
  -46.0725   57.8490   64.5009 C   0  0  0  0  0  0  0  0  0  0  0  0
  -47.3493   56.5740   66.2821 C   0  0  0  0  0  0  0  0  0  0  0  0
  -45.9767   56.8537   65.6653 C   0  0  0  0  0  0  0  0  0  0  0  0
  -47.7438   59.4510   60.9483 C   0  0  0  0  0  0  0  0  0  0  0  0
  -47.8408   57.9205   60.7449 C   0  0  0  0  0  0  0  0  0  0  0  0
  -46.1536   57.9099   57.4420 C   0  0  0  0  0  0  0  0  0  0  0  0
  -46.6770   56.7544   56.8470 C   0  0  0  0  0  0  0  0  0  0  0  0
  -46.5513   58.2841   58.7311 C   0  0  0  0  0  0  0  0  0  0  0  0
  -47.5948   55.9873   57.5644 C   0  0  0  0  0  0  0  0  0  0  0  0
  -47.9805   56.3614   58.8505 C   0  0  0  0  0  0  0  0  0  0  0  0
  -47.4460   57.4995   59.4677 C   0  0  0  0  0  0  0  0  0  0  0  0
  -48.1490   54.8580   57.0592 O   0  0  0  0  0  0  0  0  0  0  0  0
  -48.8752   55.5761   59.5173 O   0  0  0  0  0  0  0  0  0  0  0  0
  -47.9193   54.5680   56.1984 H   0  0  0  0  0  0  0  0  0  0  0  0
  -49.2313   54.8153   59.1022 H   0  0  0  0  0  0  0  0  0  0  0  0
 12 13  1  0  0  0
  9 10  2  0  0  0
  9  8  1  0  0  0
  6  7  2  0  0  0
  6  8  1  0  0  0
 10 11  1  0  0  0
  7  5  1  0  0  0
 16 17  2  0  0  0
 16 18  1  0  0  0
 17 19  1  0  0  0
 18 21  2  0  0  0
 13 11  1  0  0  0
  5  4  1  0  0  0
  4  3  1  0  0  0
  3  2  1  0  0  0
  2  1  1  0  0  0
  1 14  1  0  0  0
 14 15  1  0  0  0
 15 21  1  0  0  0
 19 20  2  0  0  0
 19 22  1  0  0  0
 20 21  1  0  0  0
 20 23  1  0  0  0
 22 24  1  0  0  0
 23 25  1  0  0  0
M  END
> <minimizedAffinity>
-8.07007

> <CNNscore>
0.5346090198

> <CNNaffinity>
6.8757681847

> <CNN_VS>
3.6758477688

> <CNNaffinity_variance>
0.0703635439

$$$$



 25 25  0  0  0  0  0  0  0  0999 V2000
  -50.0086   60.0179   61.6728 C   0  0  0  0  0  0  0  0  0  0  0  0
  -50.4968   58.6500   62.1723 C   0  0  0  0  0  0  0  0  0  0  0  0
  -50.2603   58.5167   63.6704 C   0  0  0  0  0  0  0  0  0  0  0  0
  -50.6583   59.8194   64.3651 C   0  0  0  0  0  0  0  0  0  0  0  0
  -50.6045   59.6449   65.8827 C   0  0  0  0  0  0  0  0  0  0  0  0
  -48.2353   58.6257   66.5341 C   0  0  0  0  0  0  0  0  0  0  0  0
  -49.7232   58.4310   66.1828 C   0  0  0  0  0  0  0  0  0  0  0  0
  -47.5564   60.0029   66.4775 C   0  0  0  0  0  0  0  0  0  0  0  0
  -46.1572   59.7946   65.8799 C   0  0  0  0  0  0  0  0  0  0  0  0
  -45.7592   60.3796   64.5036 C   0  0  0  0  0  0  0  0  0  0  0  0
  -46.7347   61.2349   63.6714 C   0  0  0  0  0  0  0  0  0  0  0  0
  -45.7644   62.1338   61.5084 C   0  0  0  0  0  0  0  0  0  0  0  0
  -45.9178   62.3562   63.0150 C   0  0  0  0  0  0  0  0  0  0  0  0
  -48.7626   59.9270   60.7541 C   0  0  0  0  0  0  0  0  0  0  0  0
  -49.1174   59.6591   59.2723 C   0  0  0  0  0  0  0  0  0  0  0  0
  -46.3159   58.2300   57.3065 C   0  0  0  0  0  0  0  0  0  0  0  0
  -46.6118   56.8605   57.3236 C   0  0  0  0  0  0  0  0  0  0  0  0
  -47.1567   59.1436   57.9532 C   0  0  0  0  0  0  0  0  0  0  0  0
  -47.7538   56.4295   57.9983 C   0  0  0  0  0  0  0  0  0  0  0  0
  -48.5825   57.3437   58.6467 C   0  0  0  0  0  0  0  0  0  0  0  0
  -48.2851   58.7124   58.6598 C   0  0  0  0  0  0  0  0  0  0  0  0
  -48.1112   55.1232   58.0594 O   0  0  0  0  0  0  0  0  0  0  0  0
  -49.6847   56.8752   59.3005 O   0  0  0  0  0  0  0  0  0  0  0  0
  -47.5842   54.4731   57.6381 H   0  0  0  0  0  0  0  0  0  0  0  0
  -49.8814   55.9591   59.2902 H   0  0  0  0  0  0  0  0  0  0  0  0
 12 13  1  0  0  0
  9 10  2  0  0  0
  9  8  1  0  0  0
  6  7  2  0  0  0
  6  8  1  0  0  0
 10 11  1  0  0  0
  7  5  1  0  0  0
 16 17  2  0  0  0
 16 18  1  0  0  0
 17 19  1  0  0  0
 18 21  2  0  0  0
 13 11  1  0  0  0
  5  4  1  0  0  0
  4  3  1  0  0  0
  3  2  1  0  0  0
  2  1  1  0  0  0
  1 14  1  0  0  0
 14 15  1  0  0  0
 15 21  1  0  0  0
 19 20  2  0  0  0
 19 22  1  0  0  0
 20 21  1  0  0  0
 20 23  1  0  0  0
 22 24  1  0  0  0
 23 25  1  0  0  0
M  END
> <minimizedAffinity>
-8.26828

> <CNNscore>
0.4750721753

> <CNNaffinity>
6.6057500839

> <CNN_VS>
3.1382081509

> <CNNaffinity_variance>
0.1373127401

$$$$



 25 25  0  0  0  0  0  0  0  0999 V2000
  -48.6209   56.5345   59.8680 C   0  0  0  0  0  0  0  0  0  0  0  0
  -49.9077   57.3232   59.5831 C   0  0  0  0  0  0  0  0  0  0  0  0
  -50.8221   57.3047   60.8003 C   0  0  0  0  0  0  0  0  0  0  0  0
  -50.0749   57.8769   62.0054 C   0  0  0  0  0  0  0  0  0  0  0  0
  -50.0490   59.4035   61.9328 C   0  0  0  0  0  0  0  0  0  0  0  0
  -51.3276   60.3544   64.0629 C   0  0  0  0  0  0  0  0  0  0  0  0
  -51.3321   59.9243   62.5829 C   0  0  0  0  0  0  0  0  0  0  0  0
  -50.0975   60.1664   64.9641 C   0  0  0  0  0  0  0  0  0  0  0  0
  -50.4488   59.0794   65.9903 C   0  0  0  0  0  0  0  0  0  0  0  0
  -49.5915   57.8018   66.1560 C   0  0  0  0  0  0  0  0  0  0  0  0
  -48.3157   57.5659   65.3241 C   0  0  0  0  0  0  0  0  0  0  0  0
  -46.0678   56.5724   65.9473 C   0  0  0  0  0  0  0  0  0  0  0  0
  -47.5840   56.3633   65.9357 C   0  0  0  0  0  0  0  0  0  0  0  0
  -47.5988   56.5857   58.7030 C   0  0  0  0  0  0  0  0  0  0  0  0
  -46.3213   57.3867   59.0492 C   0  0  0  0  0  0  0  0  0  0  0  0
  -47.4812   60.9014   59.2876 C   0  0  0  0  0  0  0  0  0  0  0  0
  -47.0638   61.2632   60.5753 C   0  0  0  0  0  0  0  0  0  0  0  0
  -47.2249   59.6159   58.7959 C   0  0  0  0  0  0  0  0  0  0  0  0
  -46.3946   60.3189   61.3535 C   0  0  0  0  0  0  0  0  0  0  0  0
  -46.1496   59.0383   60.8608 C   0  0  0  0  0  0  0  0  0  0  0  0
  -46.5839   58.6546   59.5855 C   0  0  0  0  0  0  0  0  0  0  0  0
  -45.9563   60.5906   62.6073 O   0  0  0  0  0  0  0  0  0  0  0  0
  -45.4983   58.1452   61.6608 O   0  0  0  0  0  0  0  0  0  0  0  0
  -46.0987   61.4384   62.9799 H   0  0  0  0  0  0  0  0  0  0  0  0
  -45.2088   58.4044   62.5135 H   0  0  0  0  0  0  0  0  0  0  0  0
 12 13  1  0  0  0
  9 10  2  0  0  0
  9  8  1  0  0  0
  6  7  2  0  0  0
  6  8  1  0  0  0
 10 11  1  0  0  0
  7  5  1  0  0  0
 16 17  2  0  0  0
 16 18  1  0  0  0
 17 19  1  0  0  0
 18 21  2  0  0  0
 13 11  1  0  0  0
  5  4  1  0  0  0
  4  3  1  0  0  0
  3  2  1  0  0  0
  2  1  1  0  0  0
  1 14  1  0  0  0
 14 15  1  0  0  0
 15 21  1  0  0  0
 19 20  2  0  0  0
 19 22  1  0  0  0
 20 21  1  0  0  0
 20 23  1  0  0  0
 22 24  1  0  0  0
 23 25  1  0  0  0
M  END
> <minimizedAffinity>
-8.32416

> <CNNscore>
0.4525620937

> <CNNaffinity>
6.4644546509

> <CNN_VS>
2.9255671501

> <CNNaffinity_variance>
0.2939713299

$$$$



 25 25  0  0  0  0  0  0  0  0999 V2000
  -45.9021   57.6828   59.4986 C   0  0  0  0  0  0  0  0  0  0  0  0
  -46.6883   58.9046   59.0004 C   0  0  0  0  0  0  0  0  0  0  0  0
  -47.3726   58.5917   57.6768 C   0  0  0  0  0  0  0  0  0  0  0  0
  -48.7381   57.9595   57.9483 C   0  0  0  0  0  0  0  0  0  0  0  0
  -49.4325   58.6812   59.1030 C   0  0  0  0  0  0  0  0  0  0  0  0
  -50.7053   57.8886   61.3003 C   0  0  0  0  0  0  0  0  0  0  0  0
  -50.3172   57.6638   59.8258 C   0  0  0  0  0  0  0  0  0  0  0  0
  -50.1331   59.0502   62.1273 C   0  0  0  0  0  0  0  0  0  0  0  0
  -51.3243   59.7978   62.7442 C   0  0  0  0  0  0  0  0  0  0  0  0
  -51.3116   60.2893   64.2115 C   0  0  0  0  0  0  0  0  0  0  0  0
  -50.0872   60.0870   65.1256 C   0  0  0  0  0  0  0  0  0  0  0  0
  -49.2310   57.8846   66.0446 C   0  0  0  0  0  0  0  0  0  0  0  0
  -50.3865   58.8884   66.0363 C   0  0  0  0  0  0  0  0  0  0  0  0
  -44.9979   57.9911   60.7202 C   0  0  0  0  0  0  0  0  0  0  0  0
  -45.6892   58.8816   61.7796 C   0  0  0  0  0  0  0  0  0  0  0  0
  -44.6408   62.4392   61.7661 C   0  0  0  0  0  0  0  0  0  0  0  0
  -43.5103   62.4168   62.5936 C   0  0  0  0  0  0  0  0  0  0  0  0
  -45.3489   61.2603   61.5038 C   0  0  0  0  0  0  0  0  0  0  0  0
  -43.1103   61.2021   63.1501 C   0  0  0  0  0  0  0  0  0  0  0  0
  -43.8246   60.0334   62.8911 C   0  0  0  0  0  0  0  0  0  0  0  0
  -44.9714   60.0455   62.0869 C   0  0  0  0  0  0  0  0  0  0  0  0
  -42.0272   61.0954   63.9582 O   0  0  0  0  0  0  0  0  0  0  0  0
  -43.4007   58.8697   63.4635 O   0  0  0  0  0  0  0  0  0  0  0  0
  -41.5167   61.8548   64.1601 H   0  0  0  0  0  0  0  0  0  0  0  0
  -42.6332   58.8643   64.0010 H   0  0  0  0  0  0  0  0  0  0  0  0
 12 13  1  0  0  0
  9 10  2  0  0  0
  9  8  1  0  0  0
  6  7  2  0  0  0
  6  8  1  0  0  0
 10 11  1  0  0  0
  7  5  1  0  0  0
 16 17  2  0  0  0
 16 18  1  0  0  0
 17 19  1  0  0  0
 18 21  2  0  0  0
 13 11  1  0  0  0
  5  4  1  0  0  0
  4  3  1  0  0  0
  3  2  1  0  0  0
  2  1  1  0  0  0
  1 14  1  0  0  0
 14 15  1  0  0  0
 15 21  1  0  0  0
 19 20  2  0  0  0
 19 22  1  0  0  0
 20 21  1  0  0  0
 20 23  1  0  0  0
 22 24  1  0  0  0
 23 25  1  0  0  0
M  END
> <minimizedAffinity>
-8.43839

> <CNNscore>
0.4462205470

> <CNNaffinity>
6.3243708611

> <CNN_VS>
2.8220641613

> <CNNaffinity_variance>
0.1242126599

$$$$



 25 25  0  0  0  0  0  0  0  0999 V2000
  -49.6143   57.2662   59.3042 C   0  0  0  0  0  0  0  0  0  0  0  0
  -48.8749   55.9582   59.6223 C   0  0  0  0  0  0  0  0  0  0  0  0
  -47.4087   56.0676   59.2267 C   0  0  0  0  0  0  0  0  0  0  0  0
  -47.3078   56.3807   57.7335 C   0  0  0  0  0  0  0  0  0  0  0  0
  -46.2879   57.4943   57.4965 C   0  0  0  0  0  0  0  0  0  0  0  0
  -47.0626   59.8245   58.5192 C   0  0  0  0  0  0  0  0  0  0  0  0
  -47.0559   58.8101   57.3589 C   0  0  0  0  0  0  0  0  0  0  0  0
  -46.4192   59.5136   59.8793 C   0  0  0  0  0  0  0  0  0  0  0  0
  -47.3080   60.1502   60.9578 C   0  0  0  0  0  0  0  0  0  0  0  0
  -46.8940   61.4419   61.7026 C   0  0  0  0  0  0  0  0  0  0  0  0
  -45.5816   62.1820   61.3778 C   0  0  0  0  0  0  0  0  0  0  0  0
  -43.2200   62.4561   62.2585 C   0  0  0  0  0  0  0  0  0  0  0  0
  -44.6486   62.0145   62.5849 C   0  0  0  0  0  0  0  0  0  0  0  0
  -50.4667   57.7930   60.4877 C   0  0  0  0  0  0  0  0  0  0  0  0
  -49.7562   57.6607   61.8555 C   0  0  0  0  0  0  0  0  0  0  0  0
  -51.7698   60.3458   63.4337 C   0  0  0  0  0  0  0  0  0  0  0  0
  -51.2519   60.3769   64.7353 C   0  0  0  0  0  0  0  0  0  0  0  0
  -51.2618   59.4436   62.4915 C   0  0  0  0  0  0  0  0  0  0  0  0
  -50.2276   59.4917   65.0708 C   0  0  0  0  0  0  0  0  0  0  0  0
  -49.7319   58.5905   64.1301 C   0  0  0  0  0  0  0  0  0  0  0  0
  -50.2577   58.5307   62.8332 C   0  0  0  0  0  0  0  0  0  0  0  0
  -49.6713   59.4602   66.3066 O   0  0  0  0  0  0  0  0  0  0  0  0
  -48.7348   57.7382   64.5058 O   0  0  0  0  0  0  0  0  0  0  0  0
  -49.9728   60.0478   66.9713 H   0  0  0  0  0  0  0  0  0  0  0  0
  -48.3848   57.7803   65.3739 H   0  0  0  0  0  0  0  0  0  0  0  0
 12 13  1  0  0  0
  9 10  2  0  0  0
  9  8  1  0  0  0
  6  7  2  0  0  0
  6  8  1  0  0  0
 10 11  1  0  0  0
  7  5  1  0  0  0
 16 17  2  0  0  0
 16 18  1  0  0  0
 17 19  1  0  0  0
 18 21  2  0  0  0
 13 11  1  0  0  0
  5  4  1  0  0  0
  4  3  1  0  0  0
  3  2  1  0  0  0
  2  1  1  0  0  0
  1 14  1  0  0  0
 14 15  1  0  0  0
 15 21  1  0  0  0
 19 20  2  0  0  0
 19 22  1  0  0  0
 20 21  1  0  0  0
 20 23  1  0  0  0
 22 24  1  0  0  0
 23 25  1  0  0  0
M  END
> <minimizedAffinity>
-8.84355

> <CNNscore>
0.4318858385

> <CNNaffinity>
6.4026184082

> <CNN_VS>
2.7652001381

> <CNNaffinity_variance>
0.0980996490

$$$$



 25 25  0  0  0  0  0  0  0  0999 V2000
  -47.2472   60.2122   61.1666 C   0  0  0  0  0  0  0  0  0  0  0  0
  -46.7950   59.6426   59.8138 C   0  0  0  0  0  0  0  0  0  0  0  0
  -45.9894   58.3668   60.0177 C   0  0  0  0  0  0  0  0  0  0  0  0
  -45.7658   57.6863   58.6668 C   0  0  0  0  0  0  0  0  0  0  0  0
  -46.5531   58.4109   57.5752 C   0  0  0  0  0  0  0  0  0  0  0  0
  -48.7716   57.0226   57.0985 C   0  0  0  0  0  0  0  0  0  0  0  0
  -47.3048   57.3555   56.7621 C   0  0  0  0  0  0  0  0  0  0  0  0
  -49.4883   57.6292   58.3147 C   0  0  0  0  0  0  0  0  0  0  0  0
  -49.2151   56.7046   59.5100 C   0  0  0  0  0  0  0  0  0  0  0  0
  -49.7875   56.9956   60.9180 C   0  0  0  0  0  0  0  0  0  0  0  0
  -50.6942   58.2116   61.1910 C   0  0  0  0  0  0  0  0  0  0  0  0
  -51.2618   59.8955   62.9996 C   0  0  0  0  0  0  0  0  0  0  0  0
  -50.4757   58.6291   62.6517 C   0  0  0  0  0  0  0  0  0  0  0  0
  -46.9269   61.7200   61.3358 C   0  0  0  0  0  0  0  0  0  0  0  0
  -46.3104   62.0603   62.7133 C   0  0  0  0  0  0  0  0  0  0  0  0
  -42.6993   62.2065   61.8804 C   0  0  0  0  0  0  0  0  0  0  0  0
  -42.1456   61.3169   62.8107 C   0  0  0  0  0  0  0  0  0  0  0  0
  -44.0796   62.4391   61.8588 C   0  0  0  0  0  0  0  0  0  0  0  0
  -42.9944   60.6747   63.7120 C   0  0  0  0  0  0  0  0  0  0  0  0
  -44.3669   60.9169   63.6902 C   0  0  0  0  0  0  0  0  0  0  0  0
  -44.9309   61.8230   62.7830 C   0  0  0  0  0  0  0  0  0  0  0  0
  -42.5384   59.7987   64.6406 O   0  0  0  0  0  0  0  0  0  0  0  0
  -45.1574   60.2718   64.5961 O   0  0  0  0  0  0  0  0  0  0  0  0
  -41.6231   59.6051   64.6924 H   0  0  0  0  0  0  0  0  0  0  0  0
  -44.7777   59.6661   65.2018 H   0  0  0  0  0  0  0  0  0  0  0  0
 12 13  1  0  0  0
  9 10  2  0  0  0
  9  8  1  0  0  0
  6  7  2  0  0  0
  6  8  1  0  0  0
 10 11  1  0  0  0
  7  5  1  0  0  0
 16 17  2  0  0  0
 16 18  1  0  0  0
 17 19  1  0  0  0
 18 21  2  0  0  0
 13 11  1  0  0  0
  5  4  1  0  0  0
  4  3  1  0  0  0
  3  2  1  0  0  0
  2  1  1  0  0  0
  1 14  1  0  0  0
 14 15  1  0  0  0
 15 21  1  0  0  0
 19 20  2  0  0  0
 19 22  1  0  0  0
 20 21  1  0  0  0
 20 23  1  0  0  0
 22 24  1  0  0  0
 23 25  1  0  0  0
M  END
> <minimizedAffinity>
-8.24632

> <CNNscore>
0.4190091193

> <CNNaffinity>
6.1244444847

> <CNN_VS>
2.5661981106

> <CNNaffinity_variance>
0.1256730258

$$$$



 25 25  0  0  0  0  0  0  0  0999 V2000
  -49.6128   59.8047   60.6928 C   0  0  0  0  0  0  0  0  0  0  0  0
  -49.8039   60.0929   62.1893 C   0  0  0  0  0  0  0  0  0  0  0  0
  -51.1840   59.6392   62.6452 C   0  0  0  0  0  0  0  0  0  0  0  0
  -51.4983   60.2597   64.0068 C   0  0  0  0  0  0  0  0  0  0  0  0
  -50.2571   60.2299   64.8984 C   0  0  0  0  0  0  0  0  0  0  0  0
  -49.1836   57.9275   65.6873 C   0  0  0  0  0  0  0  0  0  0  0  0
  -50.3244   58.9618   65.7512 C   0  0  0  0  0  0  0  0  0  0  0  0
  -48.0171   58.0587   64.6959 C   0  0  0  0  0  0  0  0  0  0  0  0
  -46.8014   58.5591   65.4895 C   0  0  0  0  0  0  0  0  0  0  0  0
  -46.2009   59.9678   65.2661 C   0  0  0  0  0  0  0  0  0  0  0  0
  -46.8125   60.9612   64.2588 C   0  0  0  0  0  0  0  0  0  0  0  0
  -46.0655   60.0550   62.0118 C   0  0  0  0  0  0  0  0  0  0  0  0
  -45.8206   61.1066   63.0967 C   0  0  0  0  0  0  0  0  0  0  0  0
  -49.7403   58.3010   60.3361 C   0  0  0  0  0  0  0  0  0  0  0  0
  -48.4050   57.5302   60.4632 C   0  0  0  0  0  0  0  0  0  0  0  0
  -46.3605   58.4542   57.5100 C   0  0  0  0  0  0  0  0  0  0  0  0
  -46.3618   57.2664   56.7669 C   0  0  0  0  0  0  0  0  0  0  0  0
  -47.0442   58.5265   58.7295 C   0  0  0  0  0  0  0  0  0  0  0  0
  -47.0519   56.1626   57.2676 C   0  0  0  0  0  0  0  0  0  0  0  0
  -47.7239   56.2390   58.4864 C   0  0  0  0  0  0  0  0  0  0  0  0
  -47.7096   57.4118   59.2522 C   0  0  0  0  0  0  0  0  0  0  0  0
  -47.1036   54.9789   56.6090 O   0  0  0  0  0  0  0  0  0  0  0  0
  -48.3790   55.1316   58.9404 O   0  0  0  0  0  0  0  0  0  0  0  0
  -46.6665   54.8811   55.7860 H   0  0  0  0  0  0  0  0  0  0  0  0
  -48.3871   54.3483   58.4262 H   0  0  0  0  0  0  0  0  0  0  0  0
 12 13  1  0  0  0
  9 10  2  0  0  0
  9  8  1  0  0  0
  6  7  2  0  0  0
  6  8  1  0  0  0
 10 11  1  0  0  0
  7  5  1  0  0  0
 16 17  2  0  0  0
 16 18  1  0  0  0
 17 19  1  0  0  0
 18 21  2  0  0  0
 13 11  1  0  0  0
  5  4  1  0  0  0
  4  3  1  0  0  0
  3  2  1  0  0  0
  2  1  1  0  0  0
  1 14  1  0  0  0
 14 15  1  0  0  0
 15 21  1  0  0  0
 19 20  2  0  0  0
 19 22  1  0  0  0
 20 21  1  0  0  0
 20 23  1  0  0  0
 22 24  1  0  0  0
 23 25  1  0  0  0
M  END
> <minimizedAffinity>
-8.14164

> <CNNscore>
0.4100415111

> <CNNaffinity>
6.7536988258

> <CNN_VS>
2.7692968845

> <CNNaffinity_variance>
0.0602712631

$$$$



 25 25  0  0  0  0  0  0  0  0999 V2000
  -50.4018   58.5014   62.7311 C   0  0  0  0  0  0  0  0  0  0  0  0
  -49.4630   57.7587   61.7688 C   0  0  0  0  0  0  0  0  0  0  0  0
  -50.2679   56.9847   60.7338 C   0  0  0  0  0  0  0  0  0  0  0  0
  -49.5494   57.0422   59.3853 C   0  0  0  0  0  0  0  0  0  0  0  0
  -48.2693   56.2083   59.4345 C   0  0  0  0  0  0  0  0  0  0  0  0
  -46.8771   56.2951   57.1694 C   0  0  0  0  0  0  0  0  0  0  0  0
  -48.0017   55.6789   58.0244 C   0  0  0  0  0  0  0  0  0  0  0  0
  -46.0766   57.5214   57.6342 C   0  0  0  0  0  0  0  0  0  0  0  0
  -46.9257   58.7623   57.3221 C   0  0  0  0  0  0  0  0  0  0  0  0
  -47.2325   59.8353   58.3942 C   0  0  0  0  0  0  0  0  0  0  0  0
  -46.6725   59.7361   59.8267 C   0  0  0  0  0  0  0  0  0  0  0  0
  -48.8876   60.9044   60.2225 C   0  0  0  0  0  0  0  0  0  0  0  0
  -47.4390   60.7467   60.6909 C   0  0  0  0  0  0  0  0  0  0  0  0
  -49.6588   59.1857   63.9077 C   0  0  0  0  0  0  0  0  0  0  0  0
  -49.8527   58.4546   65.2573 C   0  0  0  0  0  0  0  0  0  0  0  0
  -46.9907   56.2270   66.0331 C   0  0  0  0  0  0  0  0  0  0  0  0
  -46.2906   56.9695   66.9933 C   0  0  0  0  0  0  0  0  0  0  0  0
  -48.1696   56.7308   65.4707 C   0  0  0  0  0  0  0  0  0  0  0  0
  -46.7890   58.2160   67.3715 C   0  0  0  0  0  0  0  0  0  0  0  0
  -47.9591   58.7151   66.8018 C   0  0  0  0  0  0  0  0  0  0  0  0
  -48.6551   57.9954   65.8221 C   0  0  0  0  0  0  0  0  0  0  0  0
  -46.1730   58.9944   68.2947 O   0  0  0  0  0  0  0  0  0  0  0  0
  -48.4047   59.9427   67.1969 O   0  0  0  0  0  0  0  0  0  0  0  0
  -45.3834   58.6997   68.7044 H   0  0  0  0  0  0  0  0  0  0  0  0
  -47.9374   60.4221   67.8524 H   0  0  0  0  0  0  0  0  0  0  0  0
 12 13  1  0  0  0
  9 10  2  0  0  0
  9  8  1  0  0  0
  6  7  2  0  0  0
  6  8  1  0  0  0
 10 11  1  0  0  0
  7  5  1  0  0  0
 16 17  2  0  0  0
 16 18  1  0  0  0
 17 19  1  0  0  0
 18 21  2  0  0  0
 13 11  1  0  0  0
  5  4  1  0  0  0
  4  3  1  0  0  0
  3  2  1  0  0  0
  2  1  1  0  0  0
  1 14  1  0  0  0
 14 15  1  0  0  0
 15 21  1  0  0  0
 19 20  2  0  0  0
 19 22  1  0  0  0
 20 21  1  0  0  0
 20 23  1  0  0  0
 22 24  1  0  0  0
 23 25  1  0  0  0
M  END
> <minimizedAffinity>
-8.54342

> <CNNscore>
0.3697060347

> <CNNaffinity>
6.3320746422

> <CNN_VS>
2.3410062790

> <CNNaffinity_variance>
0.1855461001

$$$$
