


 25 25  0  0  0  0  0  0  0  0999 V2000
  -49.4172   56.7889   59.5518 C   0  0  0  0  0  0  0  0  0  0  0  0
  -49.6441   57.7390   58.3665 C   0  0  0  0  0  0  0  0  0  0  0  0
  -48.7207   57.3764   57.2115 C   0  0  0  0  0  0  0  0  0  0  0  0
  -47.5561   56.5365   57.7370 C   0  0  0  0  0  0  0  0  0  0  0  0
  -46.2595   57.3445   57.6878 C   0  0  0  0  0  0  0  0  0  0  0  0
  -46.1887   58.8362   59.8891 C   0  0  0  0  0  0  0  0  0  0  0  0
  -45.7869   57.5583   59.1269 C   0  0  0  0  0  0  0  0  0  0  0  0
  -46.9574   59.9823   59.2136 C   0  0  0  0  0  0  0  0  0  0  0  0
  -47.9845   60.5010   60.2306 C   0  0  0  0  0  0  0  0  0  0  0  0
  -47.5853   61.4487   61.3870 C   0  0  0  0  0  0  0  0  0  0  0  0
  -46.1396   61.9537   61.5613 C   0  0  0  0  0  0  0  0  0  0  0  0
  -46.7188   61.0533   63.8595 C   0  0  0  0  0  0  0  0  0  0  0  0
  -45.8634   62.0456   63.0682 C   0  0  0  0  0  0  0  0  0  0  0  0
  -50.2405   57.1694   60.8098 C   0  0  0  0  0  0  0  0  0  0  0  0
  -49.3614   57.6381   61.9933 C   0  0  0  0  0  0  0  0  0  0  0  0
  -51.6590   60.2841   63.2079 C   0  0  0  0  0  0  0  0  0  0  0  0
  -51.3282   60.3610   64.5673 C   0  0  0  0  0  0  0  0  0  0  0  0
  -50.9966   59.3803   62.3686 C   0  0  0  0  0  0  0  0  0  0  0  0
  -50.3330   59.5195   65.0641 C   0  0  0  0  0  0  0  0  0  0  0  0
  -49.6830   58.6164   64.2245 C   0  0  0  0  0  0  0  0  0  0  0  0
  -50.0213   58.5106   62.8694 C   0  0  0  0  0  0  0  0  0  0  0  0
  -49.9531   59.5338   66.3653 O   0  0  0  0  0  0  0  0  0  0  0  0
  -48.7213   57.8077   64.7564 O   0  0  0  0  0  0  0  0  0  0  0  0
  -50.3625   60.1245   66.9664 H   0  0  0  0  0  0  0  0  0  0  0  0
  -48.4968   57.8805   65.6632 H   0  0  0  0  0  0  0  0  0  0  0  0
 12 13  1  0  0  0
  9 10  2  0  0  0
  9  8  1  0  0  0
  6  7  2  0  0  0
  6  8  1  0  0  0
 10 11  1  0  0  0
  7  5  1  0  0  0
 16 17  2  0  0  0
 16 18  1  0  0  0
 17 19  1  0  0  0
 18 21  2  0  0  0
 13 11  1  0  0  0
  5  4  1  0  0  0
  4  3  1  0  0  0
  3  2  1  0  0  0
  2  1  1  0  0  0
  1 14  1  0  0  0
 14 15  1  0  0  0
 15 21  1  0  0  0
 19 20  2  0  0  0
 19 22  1  0  0  0
 20 21  1  0  0  0
 20 23  1  0  0  0
 22 24  1  0  0  0
 23 25  1  0  0  0
M  END
> <minimizedAffinity>
-8.71814

$$$$



 25 25  0  0  0  0  0  0  0  0999 V2000
  -48.4496   56.8571   57.7073 C   0  0  0  0  0  0  0  0  0  0  0  0
  -48.2850   55.7456   58.7544 C   0  0  0  0  0  0  0  0  0  0  0  0
  -49.1648   56.0230   59.9657 C   0  0  0  0  0  0  0  0  0  0  0  0
  -49.9792   57.2938   59.7213 C   0  0  0  0  0  0  0  0  0  0  0  0
  -50.4699   57.8686   61.0499 C   0  0  0  0  0  0  0  0  0  0  0  0
  -50.3736   60.2274   62.2760 C   0  0  0  0  0  0  0  0  0  0  0  0
  -49.8089   59.2349   61.2408 C   0  0  0  0  0  0  0  0  0  0  0  0
  -51.6683   59.9469   63.0543 C   0  0  0  0  0  0  0  0  0  0  0  0
  -51.5000   60.5617   64.4514 C   0  0  0  0  0  0  0  0  0  0  0  0
  -50.7126   59.8429   65.5730 C   0  0  0  0  0  0  0  0  0  0  0  0
  -50.0224   58.4848   65.3390 C   0  0  0  0  0  0  0  0  0  0  0  0
  -47.8806   57.8678   64.1306 C   0  0  0  0  0  0  0  0  0  0  0  0
  -48.5167   58.7512   65.2066 C   0  0  0  0  0  0  0  0  0  0  0  0
  -47.1045   57.4936   57.2710 C   0  0  0  0  0  0  0  0  0  0  0  0
  -47.0279   59.0116   57.5591 C   0  0  0  0  0  0  0  0  0  0  0  0
  -45.6654   58.5852   60.9821 C   0  0  0  0  0  0  0  0  0  0  0  0
  -45.9455   59.8268   61.5680 C   0  0  0  0  0  0  0  0  0  0  0  0
  -46.0330   58.3299   59.6556 C   0  0  0  0  0  0  0  0  0  0  0  0
  -46.5916   60.7985   60.8041 C   0  0  0  0  0  0  0  0  0  0  0  0
  -46.9478   60.5404   59.4814 C   0  0  0  0  0  0  0  0  0  0  0  0
  -46.6509   59.3132   58.8748 C   0  0  0  0  0  0  0  0  0  0  0  0
  -46.9003   62.0229   61.2972 O   0  0  0  0  0  0  0  0  0  0  0  0
  -47.5713   61.5238   58.7701 O   0  0  0  0  0  0  0  0  0  0  0  0
  -46.6800   62.2411   62.1814 H   0  0  0  0  0  0  0  0  0  0  0  0
  -47.7688   62.3438   59.1783 H   0  0  0  0  0  0  0  0  0  0  0  0
 12 13  1  0  0  0
  9 10  2  0  0  0
  9  8  1  0  0  0
  6  7  2  0  0  0
  6  8  1  0  0  0
 10 11  1  0  0  0
  7  5  1  0  0  0
 16 17  2  0  0  0
 16 18  1  0  0  0
 17 19  1  0  0  0
 18 21  2  0  0  0
 13 11  1  0  0  0
  5  4  1  0  0  0
  4  3  1  0  0  0
  3  2  1  0  0  0
  2  1  1  0  0  0
  1 14  1  0  0  0
 14 15  1  0  0  0
 15 21  1  0  0  0
 19 20  2  0  0  0
 19 22  1  0  0  0
 20 21  1  0  0  0
 20 23  1  0  0  0
 22 24  1  0  0  0
 23 25  1  0  0  0
M  END
> <minimizedAffinity>
-8.43763

$$$$



 25 25  0  0  0  0  0  0  0  0999 V2000
  -49.5734   60.2951   61.6887 C   0  0  0  0  0  0  0  0  0  0  0  0
  -50.6127   59.3871   62.3628 C   0  0  0  0  0  0  0  0  0  0  0  0
  -51.6521   60.2237   63.0963 C   0  0  0  0  0  0  0  0  0  0  0  0
  -51.2667   60.3325   64.5720 C   0  0  0  0  0  0  0  0  0  0  0  0
  -50.3053   59.2058   64.9498 C   0  0  0  0  0  0  0  0  0  0  0  0
  -48.2842   60.4161   66.1854 C   0  0  0  0  0  0  0  0  0  0  0  0
  -49.5966   59.6101   66.2438 C   0  0  0  0  0  0  0  0  0  0  0  0
  -47.5795   60.7337   64.8575 C   0  0  0  0  0  0  0  0  0  0  0  0
  -46.1772   60.1116   64.9280 C   0  0  0  0  0  0  0  0  0  0  0  0
  -45.7133   59.0229   63.9308 C   0  0  0  0  0  0  0  0  0  0  0  0
  -46.6213   58.5277   62.7881 C   0  0  0  0  0  0  0  0  0  0  0  0
  -45.7721   60.2061   61.0880 C   0  0  0  0  0  0  0  0  0  0  0  0
  -45.8552   58.7271   61.4731 C   0  0  0  0  0  0  0  0  0  0  0  0
  -49.5162   60.1246   60.1484 C   0  0  0  0  0  0  0  0  0  0  0  0
  -49.6601   58.6530   59.6934 C   0  0  0  0  0  0  0  0  0  0  0  0
  -46.6541   58.6308   57.5211 C   0  0  0  0  0  0  0  0  0  0  0  0
  -46.3450   57.2655   57.4591 C   0  0  0  0  0  0  0  0  0  0  0  0
  -47.7564   59.0735   58.2620 C   0  0  0  0  0  0  0  0  0  0  0  0
  -47.1525   56.3628   58.1507 C   0  0  0  0  0  0  0  0  0  0  0  0
  -48.2439   56.8113   58.8928 C   0  0  0  0  0  0  0  0  0  0  0  0
  -48.5494   58.1752   58.9849 C   0  0  0  0  0  0  0  0  0  0  0  0
  -46.9227   55.0269   58.1394 O   0  0  0  0  0  0  0  0  0  0  0  0
  -49.0011   55.8925   59.5594 O   0  0  0  0  0  0  0  0  0  0  0  0
  -46.2002   54.6799   57.6540 H   0  0  0  0  0  0  0  0  0  0  0  0
  -48.7946   54.9807   59.4961 H   0  0  0  0  0  0  0  0  0  0  0  0
 12 13  1  0  0  0
  9 10  2  0  0  0
  9  8  1  0  0  0
  6  7  2  0  0  0
  6  8  1  0  0  0
 10 11  1  0  0  0
  7  5  1  0  0  0
 16 17  2  0  0  0
 16 18  1  0  0  0
 17 19  1  0  0  0
 18 21  2  0  0  0
 13 11  1  0  0  0
  5  4  1  0  0  0
  4  3  1  0  0  0
  3  2  1  0  0  0
  2  1  1  0  0  0
  1 14  1  0  0  0
 14 15  1  0  0  0
 15 21  1  0  0  0
 19 20  2  0  0  0
 19 22  1  0  0  0
 20 21  1  0  0  0
 20 23  1  0  0  0
 22 24  1  0  0  0
 23 25  1  0  0  0
M  END
> <minimizedAffinity>
-8.22974

$$$$



 25 25  0  0  0  0  0  0  0  0999 V2000
  -51.6202   60.2990   63.5784 C   0  0  0  0  0  0  0  0  0  0  0  0
  -51.1773   59.1684   62.6379 C   0  0  0  0  0  0  0  0  0  0  0  0
  -50.0826   59.6570   61.6993 C   0  0  0  0  0  0  0  0  0  0  0  0
  -49.7019   58.5333   60.7347 C   0  0  0  0  0  0  0  0  0  0  0  0
  -49.4197   59.1047   59.3454 C   0  0  0  0  0  0  0  0  0  0  0  0
  -48.5531   57.5764   57.3480 C   0  0  0  0  0  0  0  0  0  0  0  0
  -49.6708   57.9946   58.3233 C   0  0  0  0  0  0  0  0  0  0  0  0
  -47.2116   58.3220   57.2754 C   0  0  0  0  0  0  0  0  0  0  0  0
  -46.1382   57.3806   57.8410 C   0  0  0  0  0  0  0  0  0  0  0  0
  -45.5551   57.5638   59.2627 C   0  0  0  0  0  0  0  0  0  0  0  0
  -46.0457   58.6810   60.2044 C   0  0  0  0  0  0  0  0  0  0  0  0
  -46.5095   58.6938   62.6970 C   0  0  0  0  0  0  0  0  0  0  0  0
  -45.4862   58.3827   61.6021 C   0  0  0  0  0  0  0  0  0  0  0  0
  -50.6036   60.5869   64.7135 C   0  0  0  0  0  0  0  0  0  0  0  0
  -50.6093   59.5089   65.8232 C   0  0  0  0  0  0  0  0  0  0  0  0
  -48.0598   56.8364   65.4872 C   0  0  0  0  0  0  0  0  0  0  0  0
  -46.9912   57.3526   66.2321 C   0  0  0  0  0  0  0  0  0  0  0  0
  -49.2516   57.5606   65.3642 C   0  0  0  0  0  0  0  0  0  0  0  0
  -47.1385   58.5983   66.8418 C   0  0  0  0  0  0  0  0  0  0  0  0
  -48.3250   59.3176   66.7089 C   0  0  0  0  0  0  0  0  0  0  0  0
  -49.3918   58.8257   65.9459 C   0  0  0  0  0  0  0  0  0  0  0  0
  -46.1540   59.1657   67.5810 O   0  0  0  0  0  0  0  0  0  0  0  0
  -48.4209   60.5355   67.3166 O   0  0  0  0  0  0  0  0  0  0  0  0
  -45.3389   58.7185   67.6978 H   0  0  0  0  0  0  0  0  0  0  0  0
  -47.7059   60.8623   67.8264 H   0  0  0  0  0  0  0  0  0  0  0  0
 12 13  1  0  0  0
  9 10  2  0  0  0
  9  8  1  0  0  0
  6  7  2  0  0  0
  6  8  1  0  0  0
 10 11  1  0  0  0
  7  5  1  0  0  0
 16 17  2  0  0  0
 16 18  1  0  0  0
 17 19  1  0  0  0
 18 21  2  0  0  0
 13 11  1  0  0  0
  5  4  1  0  0  0
  4  3  1  0  0  0
  3  2  1  0  0  0
  2  1  1  0  0  0
  1 14  1  0  0  0
 14 15  1  0  0  0
 15 21  1  0  0  0
 19 20  2  0  0  0
 19 22  1  0  0  0
 20 21  1  0  0  0
 20 23  1  0  0  0
 22 24  1  0  0  0
 23 25  1  0  0  0
M  END
> <minimizedAffinity>
-8.10861

$$$$



 25 25  0  0  0  0  0  0  0  0999 V2000
  -50.9335   58.1406   61.6143 C   0  0  0  0  0  0  0  0  0  0  0  0
  -50.5395   59.4886   62.2363 C   0  0  0  0  0  0  0  0  0  0  0  0
  -51.6769   60.0316   63.0906 C   0  0  0  0  0  0  0  0  0  0  0  0
  -51.1606   60.3174   64.5011 C   0  0  0  0  0  0  0  0  0  0  0  0
  -50.2063   59.2097   64.9473 C   0  0  0  0  0  0  0  0  0  0  0  0
  -48.1483   60.3107   66.2234 C   0  0  0  0  0  0  0  0  0  0  0  0
  -49.5449   59.6596   66.2512 C   0  0  0  0  0  0  0  0  0  0  0  0
  -47.3241   60.4204   64.9314 C   0  0  0  0  0  0  0  0  0  0  0  0
  -45.8444   60.3075   65.3262 C   0  0  0  0  0  0  0  0  0  0  0  0
  -45.1095   58.9463   65.3678 C   0  0  0  0  0  0  0  0  0  0  0  0
  -45.8130   57.6309   64.9802 C   0  0  0  0  0  0  0  0  0  0  0  0
  -47.6530   56.2566   66.0544 C   0  0  0  0  0  0  0  0  0  0  0  0
  -46.3248   56.9846   66.2748 C   0  0  0  0  0  0  0  0  0  0  0  0
  -50.2022   57.8433   60.2796 C   0  0  0  0  0  0  0  0  0  0  0  0
  -48.7063   57.4972   60.4693 C   0  0  0  0  0  0  0  0  0  0  0  0
  -46.7334   58.8708   57.6452 C   0  0  0  0  0  0  0  0  0  0  0  0
  -46.5362   57.7380   56.8444 C   0  0  0  0  0  0  0  0  0  0  0  0
  -47.4566   58.7753   58.8401 C   0  0  0  0  0  0  0  0  0  0  0  0
  -47.0700   56.5194   57.2632 C   0  0  0  0  0  0  0  0  0  0  0  0
  -47.7824   56.4298   58.4579 C   0  0  0  0  0  0  0  0  0  0  0  0
  -47.9649   57.5483   59.2811 C   0  0  0  0  0  0  0  0  0  0  0  0
  -46.9260   55.3787   56.5451 O   0  0  0  0  0  0  0  0  0  0  0  0
  -48.2795   55.2152   58.8313 O   0  0  0  0  0  0  0  0  0  0  0  0
  -46.4547   55.3911   55.7353 H   0  0  0  0  0  0  0  0  0  0  0  0
  -48.1560   54.4685   58.2788 H   0  0  0  0  0  0  0  0  0  0  0  0
 12 13  1  0  0  0
  9 10  2  0  0  0
  9  8  1  0  0  0
  6  7  2  0  0  0
  6  8  1  0  0  0
 10 11  1  0  0  0
  7  5  1  0  0  0
 16 17  2  0  0  0
 16 18  1  0  0  0
 17 19  1  0  0  0
 18 21  2  0  0  0
 13 11  1  0  0  0
  5  4  1  0  0  0
  4  3  1  0  0  0
  3  2  1  0  0  0
  2  1  1  0  0  0
  1 14  1  0  0  0
 14 15  1  0  0  0
 15 21  1  0  0  0
 19 20  2  0  0  0
 19 22  1  0  0  0
 20 21  1  0  0  0
 20 23  1  0  0  0
 22 24  1  0  0  0
 23 25  1  0  0  0
M  END
> <minimizedAffinity>
-7.99551

$$$$



 25 25  0  0  0  0  0  0  0  0999 V2000
  -50.7538   57.2220   60.5447 C   0  0  0  0  0  0  0  0  0  0  0  0
  -49.5427   56.9183   59.6502 C   0  0  0  0  0  0  0  0  0  0  0  0
  -49.6194   57.7248   58.3611 C   0  0  0  0  0  0  0  0  0  0  0  0
  -49.1621   56.8546   57.1899 C   0  0  0  0  0  0  0  0  0  0  0  0
  -48.0770   57.5756   56.3903 C   0  0  0  0  0  0  0  0  0  0  0  0
  -45.8581   57.3007   57.8315 C   0  0  0  0  0  0  0  0  0  0  0  0
  -46.7500   56.8617   56.6537 C   0  0  0  0  0  0  0  0  0  0  0  0
  -46.1924   58.5259   58.6964 C   0  0  0  0  0  0  0  0  0  0  0  0
  -45.9929   58.1144   60.1624 C   0  0  0  0  0  0  0  0  0  0  0  0
  -45.9742   59.1531   61.3093 C   0  0  0  0  0  0  0  0  0  0  0  0
  -46.1908   60.6565   61.0475 C   0  0  0  0  0  0  0  0  0  0  0  0
  -48.4854   60.9736   60.0165 C   0  0  0  0  0  0  0  0  0  0  0  0
  -47.6716   60.9605   61.3128 C   0  0  0  0  0  0  0  0  0  0  0  0
  -50.4790   58.3295   61.5948 C   0  0  0  0  0  0  0  0  0  0  0  0
  -49.3142   57.9841   62.5527 C   0  0  0  0  0  0  0  0  0  0  0  0
  -50.7438   59.9196   65.3750 C   0  0  0  0  0  0  0  0  0  0  0  0
  -49.7738   59.7484   66.3715 C   0  0  0  0  0  0  0  0  0  0  0  0
  -50.5754   59.3322   64.1154 C   0  0  0  0  0  0  0  0  0  0  0  0
  -48.6451   58.9812   66.0841 C   0  0  0  0  0  0  0  0  0  0  0  0
  -48.4875   58.3926   64.8305 C   0  0  0  0  0  0  0  0  0  0  0  0
  -49.4612   58.5338   63.8335 C   0  0  0  0  0  0  0  0  0  0  0  0
  -47.6606   58.7698   66.9918 O   0  0  0  0  0  0  0  0  0  0  0  0
  -47.3707   57.6441   64.5972 O   0  0  0  0  0  0  0  0  0  0  0  0
  -47.7239   59.1459   67.8477 H   0  0  0  0  0  0  0  0  0  0  0  0
  -46.7209   57.5512   65.2658 H   0  0  0  0  0  0  0  0  0  0  0  0
 12 13  1  0  0  0
  9 10  2  0  0  0
  9  8  1  0  0  0
  6  7  2  0  0  0
  6  8  1  0  0  0
 10 11  1  0  0  0
  7  5  1  0  0  0
 16 17  2  0  0  0
 16 18  1  0  0  0
 17 19  1  0  0  0
 18 21  2  0  0  0
 13 11  1  0  0  0
  5  4  1  0  0  0
  4  3  1  0  0  0
  3  2  1  0  0  0
  2  1  1  0  0  0
  1 14  1  0  0  0
 14 15  1  0  0  0
 15 21  1  0  0  0
 19 20  2  0  0  0
 19 22  1  0  0  0
 20 21  1  0  0  0
 20 23  1  0  0  0
 22 24  1  0  0  0
 23 25  1  0  0  0
M  END
> <minimizedAffinity>
-7.98967

$$$$



 25 25  0  0  0  0  0  0  0  0999 V2000
  -49.0235   60.2427   59.8432 C   0  0  0  0  0  0  0  0  0  0  0  0
  -47.7915   61.1387   59.6473 C   0  0  0  0  0  0  0  0  0  0  0  0
  -47.2565   61.6073   60.9935 C   0  0  0  0  0  0  0  0  0  0  0  0
  -45.9280   60.9078   61.2832 C   0  0  0  0  0  0  0  0  0  0  0  0
  -46.1691   59.6338   62.0927 C   0  0  0  0  0  0  0  0  0  0  0  0
  -45.0509   57.7082   60.6374 C   0  0  0  0  0  0  0  0  0  0  0  0
  -44.9993   58.6840   61.8293 C   0  0  0  0  0  0  0  0  0  0  0  0
  -46.3011   57.5605   59.7566 C   0  0  0  0  0  0  0  0  0  0  0  0
  -46.0275   58.3192   58.4497 C   0  0  0  0  0  0  0  0  0  0  0  0
  -47.0582   58.3616   57.2963 C   0  0  0  0  0  0  0  0  0  0  0  0
  -48.4329   57.6739   57.4094 C   0  0  0  0  0  0  0  0  0  0  0  0
  -47.6898   55.2811   57.0209 C   0  0  0  0  0  0  0  0  0  0  0  0
  -48.4335   56.4854   56.4383 C   0  0  0  0  0  0  0  0  0  0  0  0
  -49.7845   60.5258   61.1645 C   0  0  0  0  0  0  0  0  0  0  0  0
  -50.3995   59.2548   61.7966 C   0  0  0  0  0  0  0  0  0  0  0  0
  -51.3186   60.3088   65.2317 C   0  0  0  0  0  0  0  0  0  0  0  0
  -50.5110   59.4793   66.0209 C   0  0  0  0  0  0  0  0  0  0  0  0
  -51.2676   60.2247   63.8352 C   0  0  0  0  0  0  0  0  0  0  0  0
  -49.6628   58.5705   65.3886 C   0  0  0  0  0  0  0  0  0  0  0  0
  -49.6227   58.4865   63.9978 C   0  0  0  0  0  0  0  0  0  0  0  0
  -50.4432   59.2912   63.1970 C   0  0  0  0  0  0  0  0  0  0  0  0
  -48.8486   57.7354   66.0796 O   0  0  0  0  0  0  0  0  0  0  0  0
  -48.7832   57.5772   63.4233 O   0  0  0  0  0  0  0  0  0  0  0  0
  -48.8419   57.7566   67.0163 H   0  0  0  0  0  0  0  0  0  0  0  0
  -48.2353   57.0401   63.9612 H   0  0  0  0  0  0  0  0  0  0  0  0
 12 13  1  0  0  0
  9 10  2  0  0  0
  9  8  1  0  0  0
  6  7  2  0  0  0
  6  8  1  0  0  0
 10 11  1  0  0  0
  7  5  1  0  0  0
 16 17  2  0  0  0
 16 18  1  0  0  0
 17 19  1  0  0  0
 18 21  2  0  0  0
 13 11  1  0  0  0
  5  4  1  0  0  0
  4  3  1  0  0  0
  3  2  1  0  0  0
  2  1  1  0  0  0
  1 14  1  0  0  0
 14 15  1  0  0  0
 15 21  1  0  0  0
 19 20  2  0  0  0
 19 22  1  0  0  0
 20 21  1  0  0  0
 20 23  1  0  0  0
 22 24  1  0  0  0
 23 25  1  0  0  0
M  END
> <minimizedAffinity>
-7.96760

$$$$



 25 25  0  0  0  0  0  0  0  0999 V2000
  -51.7773   60.1885   63.1368 C   0  0  0  0  0  0  0  0  0  0  0  0
  -50.9772   59.0512   62.4846 C   0  0  0  0  0  0  0  0  0  0  0  0
  -49.7245   59.5997   61.8153 C   0  0  0  0  0  0  0  0  0  0  0  0
  -48.5515   58.6559   62.0827 C   0  0  0  0  0  0  0  0  0  0  0  0
  -47.2288   59.4127   61.9635 C   0  0  0  0  0  0  0  0  0  0  0  0
  -45.9847   58.5618   59.7716 C   0  0  0  0  0  0  0  0  0  0  0  0
  -46.2165   58.4822   61.2932 C   0  0  0  0  0  0  0  0  0  0  0  0
  -46.8289   59.4692   58.8635 C   0  0  0  0  0  0  0  0  0  0  0  0
  -46.9268   58.7775   57.4959 C   0  0  0  0  0  0  0  0  0  0  0  0
  -48.0527   57.7679   57.1676 C   0  0  0  0  0  0  0  0  0  0  0  0
  -49.1602   57.4271   58.1838 C   0  0  0  0  0  0  0  0  0  0  0  0
  -49.5728   55.9953   60.2352 C   0  0  0  0  0  0  0  0  0  0  0  0
  -48.6558   56.2556   59.0377 C   0  0  0  0  0  0  0  0  0  0  0  0
  -51.1675   60.6786   64.4758 C   0  0  0  0  0  0  0  0  0  0  0  0
  -50.6576   59.5243   65.3707 C   0  0  0  0  0  0  0  0  0  0  0  0
  -47.1475   60.7217   65.3977 C   0  0  0  0  0  0  0  0  0  0  0  0
  -46.4494   59.5801   65.8134 C   0  0  0  0  0  0  0  0  0  0  0  0
  -48.5395   60.6860   65.2527 C   0  0  0  0  0  0  0  0  0  0  0  0
  -47.1680   58.4152   66.0818 C   0  0  0  0  0  0  0  0  0  0  0  0
  -48.5547   58.3889   65.9430 C   0  0  0  0  0  0  0  0  0  0  0  0
  -49.2681   59.5297   65.5533 C   0  0  0  0  0  0  0  0  0  0  0  0
  -46.5677   57.2688   66.4857 O   0  0  0  0  0  0  0  0  0  0  0  0
  -49.2164   57.2292   66.2242 O   0  0  0  0  0  0  0  0  0  0  0  0
  -45.6373   57.2397   66.5927 H   0  0  0  0  0  0  0  0  0  0  0  0
  -48.7368   56.4675   66.4846 H   0  0  0  0  0  0  0  0  0  0  0  0
 12 13  1  0  0  0
  9 10  2  0  0  0
  9  8  1  0  0  0
  6  7  2  0  0  0
  6  8  1  0  0  0
 10 11  1  0  0  0
  7  5  1  0  0  0
 16 17  2  0  0  0
 16 18  1  0  0  0
 17 19  1  0  0  0
 18 21  2  0  0  0
 13 11  1  0  0  0
  5  4  1  0  0  0
  4  3  1  0  0  0
  3  2  1  0  0  0
  2  1  1  0  0  0
  1 14  1  0  0  0
 14 15  1  0  0  0
 15 21  1  0  0  0
 19 20  2  0  0  0
 19 22  1  0  0  0
 20 21  1  0  0  0
 20 23  1  0  0  0
 22 24  1  0  0  0
 23 25  1  0  0  0
M  END
> <minimizedAffinity>
-7.94192

$$$$



 25 25  0  0  0  0  0  0  0  0999 V2000
  -45.9677   58.3210   58.4804 C   0  0  0  0  0  0  0  0  0  0  0  0
  -46.9581   57.5966   57.5567 C   0  0  0  0  0  0  0  0  0  0  0  0
  -48.3172   58.2819   57.5940 C   0  0  0  0  0  0  0  0  0  0  0  0
  -49.3672   57.2992   58.1136 C   0  0  0  0  0  0  0  0  0  0  0  0
  -49.7379   57.6389   59.5571 C   0  0  0  0  0  0  0  0  0  0  0  0
  -49.8862   59.8008   61.0999 C   0  0  0  0  0  0  0  0  0  0  0  0
  -49.5613   59.1470   59.7426 C   0  0  0  0  0  0  0  0  0  0  0  0
  -50.5060   59.0076   62.2607 C   0  0  0  0  0  0  0  0  0  0  0  0
  -51.5818   59.9001   62.8966 C   0  0  0  0  0  0  0  0  0  0  0  0
  -51.4078   60.5146   64.3061 C   0  0  0  0  0  0  0  0  0  0  0  0
  -50.1281   60.2940   65.1363 C   0  0  0  0  0  0  0  0  0  0  0  0
  -49.6721   57.8855   65.7841 C   0  0  0  0  0  0  0  0  0  0  0  0
  -50.4204   59.1719   66.1419 C   0  0  0  0  0  0  0  0  0  0  0  0
  -45.7555   57.6016   59.8378 C   0  0  0  0  0  0  0  0  0  0  0  0
  -46.2564   58.4252   61.0478 C   0  0  0  0  0  0  0  0  0  0  0  0
  -43.3394   60.1463   62.5592 C   0  0  0  0  0  0  0  0  0  0  0  0
  -43.6215   61.4930   62.2942 C   0  0  0  0  0  0  0  0  0  0  0  0
  -44.2230   59.1433   62.1431 C   0  0  0  0  0  0  0  0  0  0  0  0
  -44.7932   61.8103   61.6076 C   0  0  0  0  0  0  0  0  0  0  0  0
  -45.6648   60.8062   61.1893 C   0  0  0  0  0  0  0  0  0  0  0  0
  -45.3828   59.4544   61.4244 C   0  0  0  0  0  0  0  0  0  0  0  0
  -45.1397   63.0878   61.3147 O   0  0  0  0  0  0  0  0  0  0  0  0
  -46.7952   61.1634   60.5139 O   0  0  0  0  0  0  0  0  0  0  0  0
  -44.5842   63.7956   61.5762 H   0  0  0  0  0  0  0  0  0  0  0  0
  -46.9816   62.0684   60.3580 H   0  0  0  0  0  0  0  0  0  0  0  0
 12 13  1  0  0  0
  9 10  2  0  0  0
  9  8  1  0  0  0
  6  7  2  0  0  0
  6  8  1  0  0  0
 10 11  1  0  0  0
  7  5  1  0  0  0
 16 17  2  0  0  0
 16 18  1  0  0  0
 17 19  1  0  0  0
 18 21  2  0  0  0
 13 11  1  0  0  0
  5  4  1  0  0  0
  4  3  1  0  0  0
  3  2  1  0  0  0
  2  1  1  0  0  0
  1 14  1  0  0  0
 14 15  1  0  0  0
 15 21  1  0  0  0
 19 20  2  0  0  0
 19 22  1  0  0  0
 20 21  1  0  0  0
 20 23  1  0  0  0
 22 24  1  0  0  0
 23 25  1  0  0  0
M  END
> <minimizedAffinity>
-7.84638

$$$$
