


 17 16  0  0  0  0  0  0  0  0999 V2000
  -47.8070   59.6854   61.0532 C   0  0  0  0  0  0  0  0  0  0  0  0
  -48.6599   60.8820   60.7408 C   0  0  0  0  0  0  0  0  0  0  0  0
  -48.1728   58.8598   62.0438 C   0  0  0  0  0  0  0  0  0  0  0  0
  -46.5488   59.4031   60.2594 C   0  0  0  0  0  0  0  0  0  0  0  0
  -46.3546   57.9022   60.0708 C   0  0  0  0  0  0  0  0  0  0  0  0
  -48.7422   56.7759   58.9569 C   0  0  0  0  0  0  0  0  0  0  0  0
  -47.5459   57.0138   58.0870 C   0  0  0  0  0  0  0  0  0  0  0  0
  -47.6044   56.6568   56.6322 C   0  0  0  0  0  0  0  0  0  0  0  0
  -46.4258   57.5389   58.6054 C   0  0  0  0  0  0  0  0  0  0  0  0
  -49.4307   59.1329   62.8359 C   0  0  0  0  0  0  0  0  0  0  0  0
  -49.7023   57.9868   63.8026 C   0  0  0  0  0  0  0  0  0  0  0  0
  -49.2888   58.3809   65.2041 C   0  0  0  0  0  0  0  0  0  0  0  0
  -50.0822   59.4077   65.9509 C   0  0  0  0  0  0  0  0  0  0  0  0
  -48.2236   57.8092   65.7849 C   0  0  0  0  0  0  0  0  0  0  0  0
  -46.7197   59.1271   67.1385 O   0  0  0  0  0  0  0  0  0  0  0  0
  -47.7983   58.1865   67.1855 C   0  0  0  0  0  0  0  0  0  0  0  0
  -46.4555   59.3616   68.0419 H   0  0  0  0  0  0  0  0  0  0  0  0
  6  7  1  0  0  0
 15 16  1  0  0  0
  7  8  1  0  0  0
  7  9  2  0  0  0
  9  5  1  0  0  0
  5  4  1  0  0  0
  4  1  1  0  0  0
  1  2  1  0  0  0
  1  3  2  0  0  0
  3 10  1  0  0  0
 10 11  1  0  0  0
 11 12  1  0  0  0
 12 13  1  0  0  0
 12 14  2  0  0  0
 14 16  1  0  0  0
 15 17  1  0  0  0
M  END
> <minimizedAffinity>
-6.90401

> <CNNscore>
0.6812440753

> <CNNaffinity>
5.8329820633

> <CNN_VS>
3.9736845493

> <CNNaffinity_variance>
0.0683322325

$$$$



 17 16  0  0  0  0  0  0  0  0999 V2000
  -48.6265   60.6988   62.8519 C   0  0  0  0  0  0  0  0  0  0  0  0
  -47.5432   61.2364   61.9607 C   0  0  0  0  0  0  0  0  0  0  0  0
  -49.6766   60.0721   62.3031 C   0  0  0  0  0  0  0  0  0  0  0  0
  -48.5393   60.8529   64.3557 C   0  0  0  0  0  0  0  0  0  0  0  0
  -47.2257   60.2837   64.8817 C   0  0  0  0  0  0  0  0  0  0  0  0
  -46.0758   58.8462   67.0772 C   0  0  0  0  0  0  0  0  0  0  0  0
  -46.7470   58.1048   65.9617 C   0  0  0  0  0  0  0  0  0  0  0  0
  -46.8110   56.6075   65.9997 C   0  0  0  0  0  0  0  0  0  0  0  0
  -47.2846   58.7743   64.9313 C   0  0  0  0  0  0  0  0  0  0  0  0
  -49.7665   59.9100   60.8031 C   0  0  0  0  0  0  0  0  0  0  0  0
  -50.1994   58.4915   60.4529 C   0  0  0  0  0  0  0  0  0  0  0  0
  -49.0097   57.6902   59.9701 C   0  0  0  0  0  0  0  0  0  0  0  0
  -47.7395   58.3937   59.6054 C   0  0  0  0  0  0  0  0  0  0  0  0
  -49.0824   56.3541   59.8772 C   0  0  0  0  0  0  0  0  0  0  0  0
  -48.1583   55.0150   58.0927 O   0  0  0  0  0  0  0  0  0  0  0  0
  -47.9031   55.5365   59.4017 C   0  0  0  0  0  0  0  0  0  0  0  0
  -47.3957   54.4928   57.7984 H   0  0  0  0  0  0  0  0  0  0  0  0
  6  7  1  0  0  0
 15 16  1  0  0  0
  7  8  1  0  0  0
  7  9  2  0  0  0
  9  5  1  0  0  0
  5  4  1  0  0  0
  4  1  1  0  0  0
  1  2  1  0  0  0
  1  3  2  0  0  0
  3 10  1  0  0  0
 10 11  1  0  0  0
 11 12  1  0  0  0
 12 13  1  0  0  0
 12 14  2  0  0  0
 14 16  1  0  0  0
 15 17  1  0  0  0
M  END
> <minimizedAffinity>
-6.29223

> <CNNscore>
0.6645439267

> <CNNaffinity>
5.8686094284

> <CNN_VS>
3.8999488354

> <CNNaffinity_variance>
0.1477195770

$$$$



 17 16  0  0  0  0  0  0  0  0999 V2000
  -50.0039   58.3380   60.9703 C   0  0  0  0  0  0  0  0  0  0  0  0
  -49.9477   59.8327   60.8306 C   0  0  0  0  0  0  0  0  0  0  0  0
  -49.7863   57.7828   62.1708 C   0  0  0  0  0  0  0  0  0  0  0  0
  -50.3080   57.4597   59.7750 C   0  0  0  0  0  0  0  0  0  0  0  0
  -49.1679   56.4789   59.5216 C   0  0  0  0  0  0  0  0  0  0  0  0
  -46.5247   57.4950   59.9579 C   0  0  0  0  0  0  0  0  0  0  0  0
  -47.0804   57.4160   58.5688 C   0  0  0  0  0  0  0  0  0  0  0  0
  -46.2471   57.8739   57.4099 C   0  0  0  0  0  0  0  0  0  0  0  0
  -48.3181   56.9428   58.3610 C   0  0  0  0  0  0  0  0  0  0  0  0
  -49.4881   58.6545   63.3689 C   0  0  0  0  0  0  0  0  0  0  0  0
  -48.1411   58.2754   63.9724 C   0  0  0  0  0  0  0  0  0  0  0  0
  -48.3420   57.6354   65.3290 C   0  0  0  0  0  0  0  0  0  0  0  0
  -49.6120   57.8783   66.0837 C   0  0  0  0  0  0  0  0  0  0  0  0
  -47.3950   56.8441   65.8545 C   0  0  0  0  0  0  0  0  0  0  0  0
  -48.0043   54.8342   67.0462 O   0  0  0  0  0  0  0  0  0  0  0  0
  -47.5797   56.1924   67.2059 C   0  0  0  0  0  0  0  0  0  0  0  0
  -48.1194   54.4267   67.9190 H   0  0  0  0  0  0  0  0  0  0  0  0
  6  7  1  0  0  0
 15 16  1  0  0  0
  7  8  1  0  0  0
  7  9  2  0  0  0
  9  5  1  0  0  0
  5  4  1  0  0  0
  4  1  1  0  0  0
  1  2  1  0  0  0
  1  3  2  0  0  0
  3 10  1  0  0  0
 10 11  1  0  0  0
 11 12  1  0  0  0
 12 13  1  0  0  0
 12 14  2  0  0  0
 14 16  1  0  0  0
 15 17  1  0  0  0
M  END
> <minimizedAffinity>
-7.90511

> <CNNscore>
0.6593086123

> <CNNaffinity>
5.9355354309

> <CNN_VS>
3.9133496284

> <CNNaffinity_variance>
0.1026596054

$$$$



 17 16  0  0  0  0  0  0  0  0999 V2000
  -42.4867   56.9005   64.3447 C   0  0  0  0  0  0  0  0  0  0  0  0
  -41.6285   57.9359   65.0143 C   0  0  0  0  0  0  0  0  0  0  0  0
  -42.2623   56.5941   63.0593 C   0  0  0  0  0  0  0  0  0  0  0  0
  -43.5922   56.2008   65.1069 C   0  0  0  0  0  0  0  0  0  0  0  0
  -43.8272   56.8727   66.4558 C   0  0  0  0  0  0  0  0  0  0  0  0
  -44.8219   59.5123   65.9534 C   0  0  0  0  0  0  0  0  0  0  0  0
  -45.7552   58.4294   66.4018 C   0  0  0  0  0  0  0  0  0  0  0  0
  -47.2108   58.7355   66.5885 C   0  0  0  0  0  0  0  0  0  0  0  0
  -45.2927   57.1931   66.6399 C   0  0  0  0  0  0  0  0  0  0  0  0
  -41.1565   57.2849   62.2948 C   0  0  0  0  0  0  0  0  0  0  0  0
  -39.9093   56.4097   62.2687 C   0  0  0  0  0  0  0  0  0  0  0  0
  -38.7376   57.1922   61.7165 C   0  0  0  0  0  0  0  0  0  0  0  0
  -38.9590   58.1826   60.6158 C   0  0  0  0  0  0  0  0  0  0  0  0
  -37.5050   57.0122   62.2136 C   0  0  0  0  0  0  0  0  0  0  0  0
  -36.0641   58.9280   62.5052 O   0  0  0  0  0  0  0  0  0  0  0  0
  -36.3232   57.7881   61.6782 C   0  0  0  0  0  0  0  0  0  0  0  0
  -35.3046   59.4175   62.1523 H   0  0  0  0  0  0  0  0  0  0  0  0
  6  7  1  0  0  0
 15 16  1  0  0  0
  7  8  1  0  0  0
  7  9  2  0  0  0
  9  5  1  0  0  0
  5  4  1  0  0  0
  4  1  1  0  0  0
  1  2  1  0  0  0
  1  3  2  0  0  0
  3 10  1  0  0  0
 10 11  1  0  0  0
 11 12  1  0  0  0
 12 13  1  0  0  0
 12 14  2  0  0  0
 14 16  1  0  0  0
 15 17  1  0  0  0
M  END
> <minimizedAffinity>
-6.42897

> <CNNscore>
0.6216944456

> <CNNaffinity>
5.7187767029

> <CNN_VS>
3.5553317070

> <CNNaffinity_variance>
0.1980944872

$$$$



 17 16  0  0  0  0  0  0  0  0999 V2000
  -46.0975   60.3155   62.4768 C   0  0  0  0  0  0  0  0  0  0  0  0
  -46.3234   61.4075   61.4701 C   0  0  0  0  0  0  0  0  0  0  0  0
  -46.3435   59.0440   62.1314 C   0  0  0  0  0  0  0  0  0  0  0  0
  -45.5921   60.6371   63.8674 C   0  0  0  0  0  0  0  0  0  0  0  0
  -46.1881   59.6790   64.8935 C   0  0  0  0  0  0  0  0  0  0  0  0
  -48.2115   57.7299   65.4560 C   0  0  0  0  0  0  0  0  0  0  0  0
  -48.5332   59.1912   65.5310 C   0  0  0  0  0  0  0  0  0  0  0  0
  -49.9195   59.6272   65.8991 C   0  0  0  0  0  0  0  0  0  0  0  0
  -47.5890   60.1065   65.2663 C   0  0  0  0  0  0  0  0  0  0  0  0
  -46.8425   58.7160   60.7430 C   0  0  0  0  0  0  0  0  0  0  0  0
  -46.0733   57.5296   60.1746 C   0  0  0  0  0  0  0  0  0  0  0  0
  -46.6333   57.1482   58.8214 C   0  0  0  0  0  0  0  0  0  0  0  0
  -46.3811   58.0303   57.6383 C   0  0  0  0  0  0  0  0  0  0  0  0
  -47.3445   56.0208   58.6730 C   0  0  0  0  0  0  0  0  0  0  0  0
  -46.9704   54.7989   56.6240 O   0  0  0  0  0  0  0  0  0  0  0  0
  -47.9077   55.6210   57.3283 C   0  0  0  0  0  0  0  0  0  0  0  0
  -47.3423   54.5488   55.7637 H   0  0  0  0  0  0  0  0  0  0  0  0
  6  7  1  0  0  0
 15 16  1  0  0  0
  7  8  1  0  0  0
  7  9  2  0  0  0
  9  5  1  0  0  0
  5  4  1  0  0  0
  4  1  1  0  0  0
  1  2  1  0  0  0
  1  3  2  0  0  0
  3 10  1  0  0  0
 10 11  1  0  0  0
 11 12  1  0  0  0
 12 13  1  0  0  0
 12 14  2  0  0  0
 14 16  1  0  0  0
 15 17  1  0  0  0
M  END
> <minimizedAffinity>
-6.81436

> <CNNscore>
0.5894821882

> <CNNaffinity>
5.9186868668

> <CNN_VS>
3.4889605045

> <CNNaffinity_variance>
0.3066416085

$$$$



 17 16  0  0  0  0  0  0  0  0999 V2000
  -43.3141   57.2933   64.4078 C   0  0  0  0  0  0  0  0  0  0  0  0
  -43.3541   55.9225   65.0211 C   0  0  0  0  0  0  0  0  0  0  0  0
  -42.4606   57.5378   63.4036 C   0  0  0  0  0  0  0  0  0  0  0  0
  -44.2283   58.3920   64.9076 C   0  0  0  0  0  0  0  0  0  0  0  0
  -45.6906   58.0228   64.6809 C   0  0  0  0  0  0  0  0  0  0  0  0
  -47.3002   59.8540   66.1859 C   0  0  0  0  0  0  0  0  0  0  0  0
  -47.1727   60.0093   64.7012 C   0  0  0  0  0  0  0  0  0  0  0  0
  -47.8939   61.1259   64.0080 C   0  0  0  0  0  0  0  0  0  0  0  0
  -46.4217   59.1527   63.9932 C   0  0  0  0  0  0  0  0  0  0  0  0
  -41.5497   56.4437   62.8963 C   0  0  0  0  0  0  0  0  0  0  0  0
  -41.1511   56.7193   61.4515 C   0  0  0  0  0  0  0  0  0  0  0  0
  -39.7313   57.2401   61.3952 C   0  0  0  0  0  0  0  0  0  0  0  0
  -38.7009   56.6892   62.3312 C   0  0  0  0  0  0  0  0  0  0  0  0
  -39.3879   58.1834   60.5058 C   0  0  0  0  0  0  0  0  0  0  0  0
  -37.9360   60.0830   60.8444 O   0  0  0  0  0  0  0  0  0  0  0  0
  -37.9738   58.7124   60.4314 C   0  0  0  0  0  0  0  0  0  0  0  0
  -37.0247   60.4113   60.7926 H   0  0  0  0  0  0  0  0  0  0  0  0
  6  7  1  0  0  0
 15 16  1  0  0  0
  7  8  1  0  0  0
  7  9  2  0  0  0
  9  5  1  0  0  0
  5  4  1  0  0  0
  4  1  1  0  0  0
  1  2  1  0  0  0
  1  3  2  0  0  0
  3 10  1  0  0  0
 10 11  1  0  0  0
 11 12  1  0  0  0
 12 13  1  0  0  0
 12 14  2  0  0  0
 14 16  1  0  0  0
 15 17  1  0  0  0
M  END
> <minimizedAffinity>
-6.24451

> <CNNscore>
0.5457558632

> <CNNaffinity>
5.6679730415

> <CNN_VS>
3.0933294296

> <CNNaffinity_variance>
0.6996359229

$$$$



 17 16  0  0  0  0  0  0  0  0999 V2000
  -42.2531   58.8840   63.8321 C   0  0  0  0  0  0  0  0  0  0  0  0
  -41.5976   59.9472   62.9975 C   0  0  0  0  0  0  0  0  0  0  0  0
  -42.2953   57.6246   63.3751 C   0  0  0  0  0  0  0  0  0  0  0  0
  -42.8574   59.2202   65.1792 C   0  0  0  0  0  0  0  0  0  0  0  0
  -44.3240   59.6116   65.0305 C   0  0  0  0  0  0  0  0  0  0  0  0
  -46.3161   57.5530   65.0825 C   0  0  0  0  0  0  0  0  0  0  0  0
  -46.0155   58.3402   66.3212 C   0  0  0  0  0  0  0  0  0  0  0  0
  -46.7645   58.0466   67.5862 C   0  0  0  0  0  0  0  0  0  0  0  0
  -45.0850   59.3061   66.3000 C   0  0  0  0  0  0  0  0  0  0  0  0
  -41.6888   57.2815   62.0340 C   0  0  0  0  0  0  0  0  0  0  0  0
  -40.4589   56.4018   62.2229 C   0  0  0  0  0  0  0  0  0  0  0  0
  -39.2200   57.1343   61.7549 C   0  0  0  0  0  0  0  0  0  0  0  0
  -37.9004   56.8498   62.4024 C   0  0  0  0  0  0  0  0  0  0  0  0
  -39.2946   58.0280   60.7576 C   0  0  0  0  0  0  0  0  0  0  0  0
  -38.0463   60.0945   60.8068 O   0  0  0  0  0  0  0  0  0  0  0  0
  -38.0673   58.7658   60.2733 C   0  0  0  0  0  0  0  0  0  0  0  0
  -37.2553   60.5578   60.4897 H   0  0  0  0  0  0  0  0  0  0  0  0
  6  7  1  0  0  0
 15 16  1  0  0  0
  7  8  1  0  0  0
  7  9  2  0  0  0
  9  5  1  0  0  0
  5  4  1  0  0  0
  4  1  1  0  0  0
  1  2  1  0  0  0
  1  3  2  0  0  0
  3 10  1  0  0  0
 10 11  1  0  0  0
 11 12  1  0  0  0
 12 13  1  0  0  0
 12 14  2  0  0  0
 14 16  1  0  0  0
 15 17  1  0  0  0
M  END
> <minimizedAffinity>
-6.19910

> <CNNscore>
0.5327599049

> <CNNaffinity>
5.6685347557

> <CNN_VS>
3.0199680328

> <CNNaffinity_variance>
0.3960625231

$$$$



 17 16  0  0  0  0  0  0  0  0999 V2000
  -44.4427   58.3772   62.2658 C   0  0  0  0  0  0  0  0  0  0  0  0
  -43.9375   59.7338   62.6676 C   0  0  0  0  0  0  0  0  0  0  0  0
  -43.5757   57.3610   62.1545 C   0  0  0  0  0  0  0  0  0  0  0  0
  -45.9144   58.1488   61.9930 C   0  0  0  0  0  0  0  0  0  0  0  0
  -46.2181   58.3020   60.5062 C   0  0  0  0  0  0  0  0  0  0  0  0
  -46.2587   57.8656   57.6747 C   0  0  0  0  0  0  0  0  0  0  0  0
  -46.7455   56.7989   58.6072 C   0  0  0  0  0  0  0  0  0  0  0  0
  -47.2561   55.5040   58.0505 C   0  0  0  0  0  0  0  0  0  0  0  0
  -46.7299   57.0004   59.9332 C   0  0  0  0  0  0  0  0  0  0  0  0
  -42.1062   57.5813   62.4312 C   0  0  0  0  0  0  0  0  0  0  0  0
  -41.2626   56.6725   61.5455 C   0  0  0  0  0  0  0  0  0  0  0  0
  -39.8327   57.1667   61.5075 C   0  0  0  0  0  0  0  0  0  0  0  0
  -38.8332   56.6228   62.4805 C   0  0  0  0  0  0  0  0  0  0  0  0
  -39.4528   58.0801   60.6018 C   0  0  0  0  0  0  0  0  0  0  0  0
  -38.0100   60.0117   60.4650 O   0  0  0  0  0  0  0  0  0  0  0  0
  -38.0280   58.5822   60.5455 C   0  0  0  0  0  0  0  0  0  0  0  0
  -37.0917   60.3220   60.4294 H   0  0  0  0  0  0  0  0  0  0  0  0
  6  7  1  0  0  0
 15 16  1  0  0  0
  7  8  1  0  0  0
  7  9  2  0  0  0
  9  5  1  0  0  0
  5  4  1  0  0  0
  4  1  1  0  0  0
  1  2  1  0  0  0
  1  3  2  0  0  0
  3 10  1  0  0  0
 10 11  1  0  0  0
 11 12  1  0  0  0
 12 13  1  0  0  0
 12 14  2  0  0  0
 14 16  1  0  0  0
 15 17  1  0  0  0
M  END
> <minimizedAffinity>
-7.46644

> <CNNscore>
0.5032516718

> <CNNaffinity>
5.6083903313

> <CNN_VS>
2.8224318027

> <CNNaffinity_variance>
0.2317869365

$$$$



 17 16  0  0  0  0  0  0  0  0999 V2000
  -46.6674   59.3067   60.9511 C   0  0  0  0  0  0  0  0  0  0  0  0
  -45.8591   59.8074   62.1142 C   0  0  0  0  0  0  0  0  0  0  0  0
  -47.8927   59.8074   60.7399 C   0  0  0  0  0  0  0  0  0  0  0  0
  -46.1104   58.2521   60.0182 C   0  0  0  0  0  0  0  0  0  0  0  0
  -46.6144   58.4694   58.5952 C   0  0  0  0  0  0  0  0  0  0  0  0
  -49.0036   56.8988   58.4095 C   0  0  0  0  0  0  0  0  0  0  0  0
  -47.7440   56.4336   57.7449 C   0  0  0  0  0  0  0  0  0  0  0  0
  -47.7405   55.1413   56.9851 C   0  0  0  0  0  0  0  0  0  0  0  0
  -46.6232   57.1652   57.8314 C   0  0  0  0  0  0  0  0  0  0  0  0
  -48.4519   60.8644   61.6642 C   0  0  0  0  0  0  0  0  0  0  0  0
  -49.7898   60.4095   62.2344 C   0  0  0  0  0  0  0  0  0  0  0  0
  -49.5753   59.6813   63.5436 C   0  0  0  0  0  0  0  0  0  0  0  0
  -49.3267   58.2049   63.5397 C   0  0  0  0  0  0  0  0  0  0  0  0
  -49.5958   60.3510   64.7055 C   0  0  0  0  0  0  0  0  0  0  0  0
  -48.2831   60.2340   66.7289 O   0  0  0  0  0  0  0  0  0  0  0  0
  -49.3789   59.6416   66.0226 C   0  0  0  0  0  0  0  0  0  0  0  0
  -48.1534   59.7711   67.5714 H   0  0  0  0  0  0  0  0  0  0  0  0
  6  7  1  0  0  0
 15 16  1  0  0  0
  7  8  1  0  0  0
  7  9  2  0  0  0
  9  5  1  0  0  0
  5  4  1  0  0  0
  4  1  1  0  0  0
  1  2  1  0  0  0
  1  3  2  0  0  0
  3 10  1  0  0  0
 10 11  1  0  0  0
 11 12  1  0  0  0
 12 13  1  0  0  0
 12 14  2  0  0  0
 14 16  1  0  0  0
 15 17  1  0  0  0
M  END
> <minimizedAffinity>
-7.09978

> <CNNscore>
0.4366101325

> <CNNaffinity>
5.5098600388

> <CNN_VS>
2.4056606293

> <CNNaffinity_variance>
0.0157073922

$$$$
