


 17 16  0  0  0  0  0  0  0  0999 V2000
  -50.4111   58.5028   62.3423 C   0  0  0  0  0  0  0  0  0  0  0  0
  -51.4509   59.3396   63.0319 C   0  0  0  0  0  0  0  0  0  0  0  0
  -49.2689   58.2168   62.9828 C   0  0  0  0  0  0  0  0  0  0  0  0
  -50.6439   57.9788   60.9409 C   0  0  0  0  0  0  0  0  0  0  0  0
  -49.4050   57.2562   60.4218 C   0  0  0  0  0  0  0  0  0  0  0  0
  -47.3013   56.0812   58.8717 C   0  0  0  0  0  0  0  0  0  0  0  0
  -47.8507   57.4241   58.4984 C   0  0  0  0  0  0  0  0  0  0  0  0
  -47.2919   58.1499   57.3117 C   0  0  0  0  0  0  0  0  0  0  0  0
  -48.8341   57.9781   59.2230 C   0  0  0  0  0  0  0  0  0  0  0  0
  -49.0331   58.7321   64.3839 C   0  0  0  0  0  0  0  0  0  0  0  0
  -47.7424   59.5405   64.4363 C   0  0  0  0  0  0  0  0  0  0  0  0
  -46.7679   58.9004   65.4013 C   0  0  0  0  0  0  0  0  0  0  0  0
  -47.1143   58.8095   66.8550 C   0  0  0  0  0  0  0  0  0  0  0  0
  -45.6018   58.4050   64.9614 C   0  0  0  0  0  0  0  0  0  0  0  0
  -43.8893   56.7248   65.2369 O   0  0  0  0  0  0  0  0  0  0  0  0
  -44.6180   57.7579   65.9094 C   0  0  0  0  0  0  0  0  0  0  0  0
  -43.2619   56.3173   65.8543 H   0  0  0  0  0  0  0  0  0  0  0  0
  6  7  1  0  0  0
 15 16  1  0  0  0
  7  8  1  0  0  0
  7  9  2  0  0  0
  9  5  1  0  0  0
  5  4  1  0  0  0
  4  1  1  0  0  0
  1  2  1  0  0  0
  1  3  2  0  0  0
  3 10  1  0  0  0
 10 11  1  0  0  0
 11 12  1  0  0  0
 12 13  1  0  0  0
 12 14  2  0  0  0
 14 16  1  0  0  0
 15 17  1  0  0  0
M  END
> <minimizedAffinity>
-8.36039

> <CNNscore>
0.8290166855

> <CNNaffinity>
6.5493988991

> <CNN_VS>
5.4295611382

> <CNNaffinity_variance>
0.1967633069

$$$$



 17 16  0  0  0  0  0  0  0  0999 V2000
  -50.6466   59.1431   64.0174 C   0  0  0  0  0  0  0  0  0  0  0  0
  -51.8022   60.0030   63.5908 C   0  0  0  0  0  0  0  0  0  0  0  0
  -49.9429   58.4818   63.0879 C   0  0  0  0  0  0  0  0  0  0  0  0
  -50.2693   59.0227   65.4789 C   0  0  0  0  0  0  0  0  0  0  0  0
  -49.0211   59.8444   65.7838 C   0  0  0  0  0  0  0  0  0  0  0  0
  -46.5673   58.9140   64.6338 C   0  0  0  0  0  0  0  0  0  0  0  0
  -46.8934   58.6039   66.0629 C   0  0  0  0  0  0  0  0  0  0  0  0
  -45.9304   57.8024   66.8860 C   0  0  0  0  0  0  0  0  0  0  0  0
  -48.0421   59.0361   66.6039 C   0  0  0  0  0  0  0  0  0  0  0  0
  -50.3109   58.6024   61.6269 C   0  0  0  0  0  0  0  0  0  0  0  0
  -50.2204   57.2411   60.9480 C   0  0  0  0  0  0  0  0  0  0  0  0
  -49.0984   57.2413   59.9324 C   0  0  0  0  0  0  0  0  0  0  0  0
  -48.6834   58.5258   59.2848 C   0  0  0  0  0  0  0  0  0  0  0  0
  -48.4667   56.1010   59.6169 C   0  0  0  0  0  0  0  0  0  0  0  0
  -47.7827   55.4853   57.3843 O   0  0  0  0  0  0  0  0  0  0  0  0
  -47.3406   56.0822   58.6085 C   0  0  0  0  0  0  0  0  0  0  0  0
  -47.0527   55.4788   56.7457 H   0  0  0  0  0  0  0  0  0  0  0  0
  6  7  1  0  0  0
 15 16  1  0  0  0
  7  8  1  0  0  0
  7  9  2  0  0  0
  9  5  1  0  0  0
  5  4  1  0  0  0
  4  1  1  0  0  0
  1  2  1  0  0  0
  1  3  2  0  0  0
  3 10  1  0  0  0
 10 11  1  0  0  0
 11 12  1  0  0  0
 12 13  1  0  0  0
 12 14  2  0  0  0
 14 16  1  0  0  0
 15 17  1  0  0  0
M  END
> <minimizedAffinity>
-8.00040

> <CNNscore>
0.7656305432

> <CNNaffinity>
6.4126129150

> <CNN_VS>
4.9096922874

> <CNNaffinity_variance>
0.1311544627

$$$$



 17 16  0  0  0  0  0  0  0  0999 V2000
  -50.1811   59.6367   64.0960 C   0  0  0  0  0  0  0  0  0  0  0  0
  -49.2351   60.8003   64.0066 C   0  0  0  0  0  0  0  0  0  0  0  0
  -50.0541   58.7642   65.1056 C   0  0  0  0  0  0  0  0  0  0  0  0
  -51.2733   59.4460   63.0648 C   0  0  0  0  0  0  0  0  0  0  0  0
  -50.9672   58.2504   62.1687 C   0  0  0  0  0  0  0  0  0  0  0  0
  -49.6116   56.2697   60.6039 C   0  0  0  0  0  0  0  0  0  0  0  0
  -49.4142   57.7254   60.3096 C   0  0  0  0  0  0  0  0  0  0  0  0
  -48.5019   58.1392   59.1944 C   0  0  0  0  0  0  0  0  0  0  0  0
  -50.0456   58.6554   61.0414 C   0  0  0  0  0  0  0  0  0  0  0  0
  -48.9695   58.9524   66.1413 C   0  0  0  0  0  0  0  0  0  0  0  0
  -48.0950   57.7068   66.2189 C   0  0  0  0  0  0  0  0  0  0  0  0
  -46.6620   58.0570   65.8811 C   0  0  0  0  0  0  0  0  0  0  0  0
  -46.3558   58.7855   64.6095 C   0  0  0  0  0  0  0  0  0  0  0  0
  -45.6665   57.7286   66.7178 C   0  0  0  0  0  0  0  0  0  0  0  0
  -43.5606   56.9395   65.8382 O   0  0  0  0  0  0  0  0  0  0  0  0
  -44.2296   58.0741   66.3997 C   0  0  0  0  0  0  0  0  0  0  0  0
  -42.6405   57.1728   65.6384 H   0  0  0  0  0  0  0  0  0  0  0  0
  6  7  1  0  0  0
 15 16  1  0  0  0
  7  8  1  0  0  0
  7  9  2  0  0  0
  9  5  1  0  0  0
  5  4  1  0  0  0
  4  1  1  0  0  0
  1  2  1  0  0  0
  1  3  2  0  0  0
  3 10  1  0  0  0
 10 11  1  0  0  0
 11 12  1  0  0  0
 12 13  1  0  0  0
 12 14  2  0  0  0
 14 16  1  0  0  0
 15 17  1  0  0  0
M  END
> <minimizedAffinity>
-7.68933

> <CNNscore>
0.7127898932

> <CNNaffinity>
6.3149538040

> <CNN_VS>
4.5012354851

> <CNNaffinity_variance>
0.0686345920

$$$$



 17 16  0  0  0  0  0  0  0  0999 V2000
  -49.4620   58.8293   64.6806 C   0  0  0  0  0  0  0  0  0  0  0  0
  -49.8243   59.3199   66.0536 C   0  0  0  0  0  0  0  0  0  0  0  0
  -48.1694   58.6981   64.3510 C   0  0  0  0  0  0  0  0  0  0  0  0
  -50.5381   58.4788   63.6748 C   0  0  0  0  0  0  0  0  0  0  0  0
  -50.7182   59.6049   62.6621 C   0  0  0  0  0  0  0  0  0  0  0  0
  -50.9272   57.4275   60.8115 C   0  0  0  0  0  0  0  0  0  0  0  0
  -49.8332   58.4400   60.6613 C   0  0  0  0  0  0  0  0  0  0  0  0
  -48.8477   58.3057   59.5396 C   0  0  0  0  0  0  0  0  0  0  0  0
  -49.7310   59.4594   61.5270 C   0  0  0  0  0  0  0  0  0  0  0  0
  -47.0906   59.0409   65.3526 C   0  0  0  0  0  0  0  0  0  0  0  0
  -46.3024   57.7908   65.7246 C   0  0  0  0  0  0  0  0  0  0  0  0
  -44.8487   57.9601   65.3394 C   0  0  0  0  0  0  0  0  0  0  0  0
  -43.7760   57.6627   66.3406 C   0  0  0  0  0  0  0  0  0  0  0  0
  -44.5151   58.3643   64.1048 C   0  0  0  0  0  0  0  0  0  0  0  0
  -42.8403   59.8671   63.2284 O   0  0  0  0  0  0  0  0  0  0  0  0
  -43.0685   58.5346   63.7003 C   0  0  0  0  0  0  0  0  0  0  0  0
  -41.9099   59.9644   62.9720 H   0  0  0  0  0  0  0  0  0  0  0  0
  6  7  1  0  0  0
 15 16  1  0  0  0
  7  8  1  0  0  0
  7  9  2  0  0  0
  9  5  1  0  0  0
  5  4  1  0  0  0
  4  1  1  0  0  0
  1  2  1  0  0  0
  1  3  2  0  0  0
  3 10  1  0  0  0
 10 11  1  0  0  0
 11 12  1  0  0  0
 12 13  1  0  0  0
 12 14  2  0  0  0
 14 16  1  0  0  0
 15 17  1  0  0  0
M  END
> <minimizedAffinity>
-7.23218

> <CNNscore>
0.6674636006

> <CNNaffinity>
6.2783951759

> <CNN_VS>
4.1906003952

> <CNNaffinity_variance>
0.2450422943

$$$$



 17 16  0  0  0  0  0  0  0  0999 V2000
  -50.4617   58.8254   61.6732 C   0  0  0  0  0  0  0  0  0  0  0  0
  -49.7438   60.1176   61.4055 C   0  0  0  0  0  0  0  0  0  0  0  0
  -51.0892   58.6543   62.8452 C   0  0  0  0  0  0  0  0  0  0  0  0
  -50.4866   57.7241   60.6343 C   0  0  0  0  0  0  0  0  0  0  0  0
  -49.0713   57.2636   60.3014 C   0  0  0  0  0  0  0  0  0  0  0  0
  -47.1133   55.9911   58.6411 C   0  0  0  0  0  0  0  0  0  0  0  0
  -47.6656   57.3310   58.2611 C   0  0  0  0  0  0  0  0  0  0  0  0
  -47.1862   58.0026   57.0095 C   0  0  0  0  0  0  0  0  0  0  0  0
  -48.5808   57.9305   59.0370 C   0  0  0  0  0  0  0  0  0  0  0  0
  -51.0728   59.7521   63.8839 C   0  0  0  0  0  0  0  0  0  0  0  0
  -50.6510   59.1900   65.2360 C   0  0  0  0  0  0  0  0  0  0  0  0
  -49.1624   59.3777   65.4344 C   0  0  0  0  0  0  0  0  0  0  0  0
  -48.4585   60.5067   64.7478 C   0  0  0  0  0  0  0  0  0  0  0  0
  -48.4723   58.5464   66.2291 C   0  0  0  0  0  0  0  0  0  0  0  0
  -46.7101   58.9575   67.8282 O   0  0  0  0  0  0  0  0  0  0  0  0
  -46.9860   58.7208   66.4432 C   0  0  0  0  0  0  0  0  0  0  0  0
  -45.7546   59.0677   67.9533 H   0  0  0  0  0  0  0  0  0  0  0  0
  6  7  1  0  0  0
 15 16  1  0  0  0
  7  8  1  0  0  0
  7  9  2  0  0  0
  9  5  1  0  0  0
  5  4  1  0  0  0
  4  1  1  0  0  0
  1  2  1  0  0  0
  1  3  2  0  0  0
  3 10  1  0  0  0
 10 11  1  0  0  0
 11 12  1  0  0  0
 12 13  1  0  0  0
 12 14  2  0  0  0
 14 16  1  0  0  0
 15 17  1  0  0  0
M  END
> <minimizedAffinity>
-8.70392

> <CNNscore>
0.6254773140

> <CNNaffinity>
6.0492901802

> <CNN_VS>
3.7836937904

> <CNNaffinity_variance>
0.1710555255

$$$$



 17 16  0  0  0  0  0  0  0  0999 V2000
  -46.9586   58.7849   66.0369 C   0  0  0  0  0  0  0  0  0  0  0  0
  -46.6681   57.8805   67.2008 C   0  0  0  0  0  0  0  0  0  0  0  0
  -46.1147   58.8056   64.9957 C   0  0  0  0  0  0  0  0  0  0  0  0
  -48.1920   59.6633   66.0281 C   0  0  0  0  0  0  0  0  0  0  0  0
  -49.4589   58.8149   65.9921 C   0  0  0  0  0  0  0  0  0  0  0  0
  -51.4288   60.1234   64.3745 C   0  0  0  0  0  0  0  0  0  0  0  0
  -50.6612   58.9580   63.8293 C   0  0  0  0  0  0  0  0  0  0  0  0
  -50.9316   58.4793   62.4347 C   0  0  0  0  0  0  0  0  0  0  0  0
  -49.7397   58.3417   64.5845 C   0  0  0  0  0  0  0  0  0  0  0  0
  -44.8850   57.9269   64.9960 C   0  0  0  0  0  0  0  0  0  0  0  0
  -44.0755   58.1555   63.7253 C   0  0  0  0  0  0  0  0  0  0  0  0
  -42.9954   59.1854   63.9764 C   0  0  0  0  0  0  0  0  0  0  0  0
  -42.3532   59.2737   65.3259 C   0  0  0  0  0  0  0  0  0  0  0  0
  -42.6026   60.0116   62.9957 C   0  0  0  0  0  0  0  0  0  0  0  0
  -42.1083   62.3190   63.5087 O   0  0  0  0  0  0  0  0  0  0  0  0
  -41.5221   61.0434   63.2262 C   0  0  0  0  0  0  0  0  0  0  0  0
  -41.4062   62.9722   63.6547 H   0  0  0  0  0  0  0  0  0  0  0  0
  6  7  1  0  0  0
 15 16  1  0  0  0
  7  8  1  0  0  0
  7  9  2  0  0  0
  9  5  1  0  0  0
  5  4  1  0  0  0
  4  1  1  0  0  0
  1  2  1  0  0  0
  1  3  2  0  0  0
  3 10  1  0  0  0
 10 11  1  0  0  0
 11 12  1  0  0  0
 12 13  1  0  0  0
 12 14  2  0  0  0
 14 16  1  0  0  0
 15 17  1  0  0  0
M  END
> <minimizedAffinity>
-7.03538

> <CNNscore>
0.6181021929

> <CNNaffinity>
6.0309309959

> <CNN_VS>
3.7277317047

> <CNNaffinity_variance>
0.1491845846

$$$$



 17 16  0  0  0  0  0  0  0  0999 V2000
  -46.0597   58.5678   65.6349 C   0  0  0  0  0  0  0  0  0  0  0  0
  -46.2928   58.7439   67.1086 C   0  0  0  0  0  0  0  0  0  0  0  0
  -46.9983   58.9753   64.7692 C   0  0  0  0  0  0  0  0  0  0  0  0
  -44.7790   57.9429   65.1230 C   0  0  0  0  0  0  0  0  0  0  0  0
  -43.7886   57.7301   66.2632 C   0  0  0  0  0  0  0  0  0  0  0  0
  -42.6571   60.0624   67.4837 C   0  0  0  0  0  0  0  0  0  0  0  0
  -41.8862   59.3087   66.4434 C   0  0  0  0  0  0  0  0  0  0  0  0
  -40.5216   59.7832   66.0433 C   0  0  0  0  0  0  0  0  0  0  0  0
  -42.4136   58.2177   65.8685 C   0  0  0  0  0  0  0  0  0  0  0  0
  -48.2763   59.6050   65.2737 C   0  0  0  0  0  0  0  0  0  0  0  0
  -49.4367   58.6281   65.1282 C   0  0  0  0  0  0  0  0  0  0  0  0
  -50.1320   58.8422   63.8011 C   0  0  0  0  0  0  0  0  0  0  0  0
  -51.3136   59.7581   63.7214 C   0  0  0  0  0  0  0  0  0  0  0  0
  -49.6904   58.2255   62.6949 C   0  0  0  0  0  0  0  0  0  0  0  0
  -51.3411   57.4035   61.1358 O   0  0  0  0  0  0  0  0  0  0  0  0
  -50.3690   58.4307   61.3597 C   0  0  0  0  0  0  0  0  0  0  0  0
  -51.7694   57.5453   60.2771 H   0  0  0  0  0  0  0  0  0  0  0  0
  6  7  1  0  0  0
 15 16  1  0  0  0
  7  8  1  0  0  0
  7  9  2  0  0  0
  9  5  1  0  0  0
  5  4  1  0  0  0
  4  1  1  0  0  0
  1  2  1  0  0  0
  1  3  2  0  0  0
  3 10  1  0  0  0
 10 11  1  0  0  0
 11 12  1  0  0  0
 12 13  1  0  0  0
 12 14  2  0  0  0
 14 16  1  0  0  0
 15 17  1  0  0  0
M  END
> <minimizedAffinity>
-7.18874

> <CNNscore>
0.6066786051

> <CNNaffinity>
6.1800017357

> <CNN_VS>
3.7492747307

> <CNNaffinity_variance>
0.2921214104

$$$$



 17 16  0  0  0  0  0  0  0  0999 V2000
  -48.7536   59.7298   64.5770 C   0  0  0  0  0  0  0  0  0  0  0  0
  -48.7482   61.1177   64.0019 C   0  0  0  0  0  0  0  0  0  0  0  0
  -49.7418   58.8867   64.2463 C   0  0  0  0  0  0  0  0  0  0  0  0
  -47.6559   59.2769   65.5165 C   0  0  0  0  0  0  0  0  0  0  0  0
  -46.5430   58.5730   64.7470 C   0  0  0  0  0  0  0  0  0  0  0  0
  -43.8076   58.3397   63.9270 C   0  0  0  0  0  0  0  0  0  0  0  0
  -44.2147   57.9372   65.3114 C   0  0  0  0  0  0  0  0  0  0  0  0
  -43.1839   57.4095   66.2634 C   0  0  0  0  0  0  0  0  0  0  0  0
  -45.4947   58.0431   65.6981 C   0  0  0  0  0  0  0  0  0  0  0  0
  -50.8372   59.3310   63.3045 C   0  0  0  0  0  0  0  0  0  0  0  0
  -51.1732   58.2133   62.3246 C   0  0  0  0  0  0  0  0  0  0  0  0
  -50.1753   58.2031   61.1870 C   0  0  0  0  0  0  0  0  0  0  0  0
  -49.6011   59.4940   60.6916 C   0  0  0  0  0  0  0  0  0  0  0  0
  -49.7942   57.0454   60.6271 C   0  0  0  0  0  0  0  0  0  0  0  0
  -48.1178   55.7537   59.4642 O   0  0  0  0  0  0  0  0  0  0  0  0
  -48.7950   57.0150   59.4931 C   0  0  0  0  0  0  0  0  0  0  0  0
  -47.4800   55.7458   58.7334 H   0  0  0  0  0  0  0  0  0  0  0  0
  6  7  1  0  0  0
 15 16  1  0  0  0
  7  8  1  0  0  0
  7  9  2  0  0  0
  9  5  1  0  0  0
  5  4  1  0  0  0
  4  1  1  0  0  0
  1  2  1  0  0  0
  1  3  2  0  0  0
  3 10  1  0  0  0
 10 11  1  0  0  0
 11 12  1  0  0  0
 12 13  1  0  0  0
 12 14  2  0  0  0
 14 16  1  0  0  0
 15 17  1  0  0  0
M  END
> <minimizedAffinity>
-7.57622

> <CNNscore>
0.5972137451

> <CNNaffinity>
6.2067151070

> <CNN_VS>
3.7067356110

> <CNNaffinity_variance>
0.1656725407

$$$$



 17 16  0  0  0  0  0  0  0  0999 V2000
  -47.1282   58.8388   65.8149 C   0  0  0  0  0  0  0  0  0  0  0  0
  -46.8361   59.3456   64.4312 C   0  0  0  0  0  0  0  0  0  0  0  0
  -46.2492   58.0229   66.4137 C   0  0  0  0  0  0  0  0  0  0  0  0
  -48.3964   59.2441   66.5361 C   0  0  0  0  0  0  0  0  0  0  0  0
  -49.5819   58.4168   66.0499 C   0  0  0  0  0  0  0  0  0  0  0  0
  -50.1160   58.4832   63.2357 C   0  0  0  0  0  0  0  0  0  0  0  0
  -50.9094   59.3421   64.1724 C   0  0  0  0  0  0  0  0  0  0  0  0
  -51.9816   60.2377   63.6287 C   0  0  0  0  0  0  0  0  0  0  0  0
  -50.6607   59.3152   65.4902 C   0  0  0  0  0  0  0  0  0  0  0  0
  -44.9788   57.6194   65.7013 C   0  0  0  0  0  0  0  0  0  0  0  0
  -43.7716   57.8707   66.5967 C   0  0  0  0  0  0  0  0  0  0  0  0
  -42.8102   58.8214   65.9169 C   0  0  0  0  0  0  0  0  0  0  0  0
  -42.8024   58.9273   64.4235 C   0  0  0  0  0  0  0  0  0  0  0  0
  -41.9732   59.5767   66.6433 C   0  0  0  0  0  0  0  0  0  0  0  0
  -41.3429   61.8857   66.3227 O   0  0  0  0  0  0  0  0  0  0  0  0
  -41.0092   60.5354   65.9824 C   0  0  0  0  0  0  0  0  0  0  0  0
  -40.7183   62.4911   65.8934 H   0  0  0  0  0  0  0  0  0  0  0  0
  6  7  1  0  0  0
 15 16  1  0  0  0
  7  8  1  0  0  0
  7  9  2  0  0  0
  9  5  1  0  0  0
  5  4  1  0  0  0
  4  1  1  0  0  0
  1  2  1  0  0  0
  1  3  2  0  0  0
  3 10  1  0  0  0
 10 11  1  0  0  0
 11 12  1  0  0  0
 12 13  1  0  0  0
 12 14  2  0  0  0
 14 16  1  0  0  0
 15 17  1  0  0  0
M  END
> <minimizedAffinity>
-7.22274

> <CNNscore>
0.5950630903

> <CNNaffinity>
5.9623827934

> <CNN_VS>
3.5479938984

> <CNNaffinity_variance>
0.0794806853

$$$$
