


 17 16  0  0  0  0  0  0  0  0999 V2000
  -49.9654   58.3666   60.9097 C   0  0  0  0  0  0  0  0  0  0  0  0
  -49.9686   59.8645   60.7951 C   0  0  0  0  0  0  0  0  0  0  0  0
  -49.7184   57.8003   62.0992 C   0  0  0  0  0  0  0  0  0  0  0  0
  -50.2427   57.4972   59.7014 C   0  0  0  0  0  0  0  0  0  0  0  0
  -49.1386   56.4614   59.5165 C   0  0  0  0  0  0  0  0  0  0  0  0
  -46.4863   57.4625   59.9314 C   0  0  0  0  0  0  0  0  0  0  0  0
  -47.0178   57.2942   58.5408 C   0  0  0  0  0  0  0  0  0  0  0  0
  -46.1554   57.6548   57.3689 C   0  0  0  0  0  0  0  0  0  0  0  0
  -48.2597   56.8277   58.3429 C   0  0  0  0  0  0  0  0  0  0  0  0
  -49.4466   58.6627   63.3103 C   0  0  0  0  0  0  0  0  0  0  0  0
  -48.1153   58.2759   63.9429 C   0  0  0  0  0  0  0  0  0  0  0  0
  -48.3489   57.6433   65.2977 C   0  0  0  0  0  0  0  0  0  0  0  0
  -49.6275   57.9082   66.0302 C   0  0  0  0  0  0  0  0  0  0  0  0
  -47.4233   56.8391   65.8412 C   0  0  0  0  0  0  0  0  0  0  0  0
  -48.0082   54.8199   67.0296 O   0  0  0  0  0  0  0  0  0  0  0  0
  -47.6408   56.1945   67.1912 C   0  0  0  0  0  0  0  0  0  0  0  0
  -48.1450   54.4172   67.9014 H   0  0  0  0  0  0  0  0  0  0  0  0
  6  7  1  0  0  0
 15 16  1  0  0  0
  7  8  1  0  0  0
  7  9  2  0  0  0
  9  5  1  0  0  0
  5  4  1  0  0  0
  4  1  1  0  0  0
  1  2  1  0  0  0
  1  3  2  0  0  0
  3 10  1  0  0  0
 10 11  1  0  0  0
 11 12  1  0  0  0
 12 13  1  0  0  0
 12 14  2  0  0  0
 14 16  1  0  0  0
 15 17  1  0  0  0
M  END
> <minimizedAffinity>
-7.94969

$$$$



 17 16  0  0  0  0  0  0  0  0999 V2000
  -49.8053   57.9830   61.0931 C   0  0  0  0  0  0  0  0  0  0  0  0
  -49.2957   57.8729   62.5020 C   0  0  0  0  0  0  0  0  0  0  0  0
  -49.9675   59.1965   60.5473 C   0  0  0  0  0  0  0  0  0  0  0  0
  -50.1295   56.7423   60.2880 C   0  0  0  0  0  0  0  0  0  0  0  0
  -48.8526   56.0186   59.8734 C   0  0  0  0  0  0  0  0  0  0  0  0
  -46.3858   57.4594   60.0935 C   0  0  0  0  0  0  0  0  0  0  0  0
  -47.0802   57.3547   58.7701 C   0  0  0  0  0  0  0  0  0  0  0  0
  -46.4788   58.0100   57.5633 C   0  0  0  0  0  0  0  0  0  0  0  0
  -48.2362   56.6828   58.6637 C   0  0  0  0  0  0  0  0  0  0  0  0
  -49.6401   60.4385   61.3438 C   0  0  0  0  0  0  0  0  0  0  0  0
  -48.4556   61.1661   60.7195 C   0  0  0  0  0  0  0  0  0  0  0  0
  -47.3786   61.3911   61.7586 C   0  0  0  0  0  0  0  0  0  0  0  0
  -47.6998   61.2166   63.2105 C   0  0  0  0  0  0  0  0  0  0  0  0
  -46.1366   61.7352   61.3872 C   0  0  0  0  0  0  0  0  0  0  0  0
  -43.9260   62.6130   61.8041 O   0  0  0  0  0  0  0  0  0  0  0  0
  -45.0466   61.9596   62.4103 C   0  0  0  0  0  0  0  0  0  0  0  0
  -43.2337   62.7515   62.4693 H   0  0  0  0  0  0  0  0  0  0  0  0
  6  7  1  0  0  0
 15 16  1  0  0  0
  7  8  1  0  0  0
  7  9  2  0  0  0
  9  5  1  0  0  0
  5  4  1  0  0  0
  4  1  1  0  0  0
  1  2  1  0  0  0
  1  3  2  0  0  0
  3 10  1  0  0  0
 10 11  1  0  0  0
 11 12  1  0  0  0
 12 13  1  0  0  0
 12 14  2  0  0  0
 14 16  1  0  0  0
 15 17  1  0  0  0
M  END
> <minimizedAffinity>
-7.59865

$$$$



 17 16  0  0  0  0  0  0  0  0999 V2000
  -49.4941   56.7420   59.2813 C   0  0  0  0  0  0  0  0  0  0  0  0
  -48.9762   55.4708   59.8918 C   0  0  0  0  0  0  0  0  0  0  0  0
  -48.9049   57.2282   58.1798 C   0  0  0  0  0  0  0  0  0  0  0  0
  -50.6722   57.4706   59.8929 C   0  0  0  0  0  0  0  0  0  0  0  0
  -50.1987   58.6464   60.7410 C   0  0  0  0  0  0  0  0  0  0  0  0
  -49.7800   60.4796   62.9028 C   0  0  0  0  0  0  0  0  0  0  0  0
  -49.4826   59.0224   63.0840 C   0  0  0  0  0  0  0  0  0  0  0  0
  -48.9626   58.5301   64.4010 C   0  0  0  0  0  0  0  0  0  0  0  0
  -49.6755   58.1617   62.0735 C   0  0  0  0  0  0  0  0  0  0  0  0
  -47.7324   56.5024   57.5613 C   0  0  0  0  0  0  0  0  0  0  0  0
  -46.4817   57.3703   57.6296 C   0  0  0  0  0  0  0  0  0  0  0  0
  -46.4312   58.1047   58.9519 C   0  0  0  0  0  0  0  0  0  0  0  0
  -45.8900   57.4135   60.1647 C   0  0  0  0  0  0  0  0  0  0  0  0
  -46.8579   59.3730   59.0419 C   0  0  0  0  0  0  0  0  0  0  0  0
  -47.5021   61.3725   60.2328 O   0  0  0  0  0  0  0  0  0  0  0  0
  -46.8109   60.1242   60.3529 C   0  0  0  0  0  0  0  0  0  0  0  0
  -47.4654   61.8452   61.0791 H   0  0  0  0  0  0  0  0  0  0  0  0
  6  7  1  0  0  0
 15 16  1  0  0  0
  7  8  1  0  0  0
  7  9  2  0  0  0
  9  5  1  0  0  0
  5  4  1  0  0  0
  4  1  1  0  0  0
  1  2  1  0  0  0
  1  3  2  0  0  0
  3 10  1  0  0  0
 10 11  1  0  0  0
 11 12  1  0  0  0
 12 13  1  0  0  0
 12 14  2  0  0  0
 14 16  1  0  0  0
 15 17  1  0  0  0
M  END
> <minimizedAffinity>
-7.37746

$$$$



 17 16  0  0  0  0  0  0  0  0999 V2000
  -49.1117   59.4172   61.3100 C   0  0  0  0  0  0  0  0  0  0  0  0
  -50.1165   58.5339   60.6265 C   0  0  0  0  0  0  0  0  0  0  0  0
  -48.8028   59.1878   62.5940 C   0  0  0  0  0  0  0  0  0  0  0  0
  -48.4454   60.5536   60.5634 C   0  0  0  0  0  0  0  0  0  0  0  0
  -46.9991   60.2045   60.2278 C   0  0  0  0  0  0  0  0  0  0  0  0
  -46.1326   57.4789   60.0557 C   0  0  0  0  0  0  0  0  0  0  0  0
  -46.5158   58.2262   58.8150 C   0  0  0  0  0  0  0  0  0  0  0  0
  -46.4407   57.5408   57.4838 C   0  0  0  0  0  0  0  0  0  0  0  0
  -46.9200   59.5029   58.8915 C   0  0  0  0  0  0  0  0  0  0  0  0
  -49.4602   58.0514   63.3430 C   0  0  0  0  0  0  0  0  0  0  0  0
  -49.6887   58.4434   64.7977 C   0  0  0  0  0  0  0  0  0  0  0  0
  -48.4436   58.1657   65.6118 C   0  0  0  0  0  0  0  0  0  0  0  0
  -47.6439   59.3074   66.1581 C   0  0  0  0  0  0  0  0  0  0  0  0
  -48.0580   56.9045   65.8558 C   0  0  0  0  0  0  0  0  0  0  0  0
  -45.7483   56.2013   65.8124 O   0  0  0  0  0  0  0  0  0  0  0  0
  -46.8199   56.6075   66.6708 C   0  0  0  0  0  0  0  0  0  0  0  0
  -44.9601   56.0136   66.3458 H   0  0  0  0  0  0  0  0  0  0  0  0
  6  7  1  0  0  0
 15 16  1  0  0  0
  7  8  1  0  0  0
  7  9  2  0  0  0
  9  5  1  0  0  0
  5  4  1  0  0  0
  4  1  1  0  0  0
  1  2  1  0  0  0
  1  3  2  0  0  0
  3 10  1  0  0  0
 10 11  1  0  0  0
 11 12  1  0  0  0
 12 13  1  0  0  0
 12 14  2  0  0  0
 14 16  1  0  0  0
 15 17  1  0  0  0
M  END
> <minimizedAffinity>
-7.23054

$$$$



 17 16  0  0  0  0  0  0  0  0999 V2000
  -46.4812   58.3767   59.4449 C   0  0  0  0  0  0  0  0  0  0  0  0
  -46.0565   57.8346   60.7800 C   0  0  0  0  0  0  0  0  0  0  0  0
  -46.9501   59.6299   59.3649 C   0  0  0  0  0  0  0  0  0  0  0  0
  -46.3793   57.5264   58.1962 C   0  0  0  0  0  0  0  0  0  0  0  0
  -47.5678   56.5763   58.0913 C   0  0  0  0  0  0  0  0  0  0  0  0
  -49.2552   55.9025   60.3067 C   0  0  0  0  0  0  0  0  0  0  0  0
  -49.6488   57.0023   59.3686 C   0  0  0  0  0  0  0  0  0  0  0  0
  -50.9309   57.7457   59.5942 C   0  0  0  0  0  0  0  0  0  0  0  0
  -48.8623   57.3191   58.3293 C   0  0  0  0  0  0  0  0  0  0  0  0
  -47.0488   60.4857   60.6068 C   0  0  0  0  0  0  0  0  0  0  0  0
  -48.5093   60.6848   60.9931 C   0  0  0  0  0  0  0  0  0  0  0  0
  -48.7506   60.1672   62.3946 C   0  0  0  0  0  0  0  0  0  0  0  0
  -48.4536   61.0441   63.5712 C   0  0  0  0  0  0  0  0  0  0  0  0
  -49.2384   58.9331   62.5891 C   0  0  0  0  0  0  0  0  0  0  0  0
  -48.3613   57.6451   64.4339 O   0  0  0  0  0  0  0  0  0  0  0  0
  -49.4904   58.4006   63.9813 C   0  0  0  0  0  0  0  0  0  0  0  0
  -48.5343   57.3089   65.3271 H   0  0  0  0  0  0  0  0  0  0  0  0
  6  7  1  0  0  0
 15 16  1  0  0  0
  7  8  1  0  0  0
  7  9  2  0  0  0
  9  5  1  0  0  0
  5  4  1  0  0  0
  4  1  1  0  0  0
  1  2  1  0  0  0
  1  3  2  0  0  0
  3 10  1  0  0  0
 10 11  1  0  0  0
 11 12  1  0  0  0
 12 13  1  0  0  0
 12 14  2  0  0  0
 14 16  1  0  0  0
 15 17  1  0  0  0
M  END
> <minimizedAffinity>
-7.15937

$$$$



 17 16  0  0  0  0  0  0  0  0999 V2000
  -49.9279   58.3266   61.0841 C   0  0  0  0  0  0  0  0  0  0  0  0
  -49.5365   57.9596   62.4874 C   0  0  0  0  0  0  0  0  0  0  0  0
  -49.8693   59.6098   60.7011 C   0  0  0  0  0  0  0  0  0  0  0  0
  -50.3798   57.2648   60.1038 C   0  0  0  0  0  0  0  0  0  0  0  0
  -49.3494   57.0804   58.9946 C   0  0  0  0  0  0  0  0  0  0  0  0
  -46.9887   58.6336   58.5216 C   0  0  0  0  0  0  0  0  0  0  0  0
  -46.9159   57.3881   59.3510 C   0  0  0  0  0  0  0  0  0  0  0  0
  -45.6013   56.9582   59.9292 C   0  0  0  0  0  0  0  0  0  0  0  0
  -48.0186   56.6574   59.5728 C   0  0  0  0  0  0  0  0  0  0  0  0
  -49.4135   60.6735   61.6733 C   0  0  0  0  0  0  0  0  0  0  0  0
  -48.0390   61.1964   61.2739 C   0  0  0  0  0  0  0  0  0  0  0  0
  -46.9984   60.7353   62.2712 C   0  0  0  0  0  0  0  0  0  0  0  0
  -45.7415   60.0832   61.7847 C   0  0  0  0  0  0  0  0  0  0  0  0
  -47.1897   60.9163   63.5863 C   0  0  0  0  0  0  0  0  0  0  0  0
  -46.8053   59.9877   65.7820 O   0  0  0  0  0  0  0  0  0  0  0  0
  -46.1595   60.4667   64.5971 C   0  0  0  0  0  0  0  0  0  0  0  0
  -46.1352   59.7023   66.4226 H   0  0  0  0  0  0  0  0  0  0  0  0
  6  7  1  0  0  0
 15 16  1  0  0  0
  7  8  1  0  0  0
  7  9  2  0  0  0
  9  5  1  0  0  0
  5  4  1  0  0  0
  4  1  1  0  0  0
  1  2  1  0  0  0
  1  3  2  0  0  0
  3 10  1  0  0  0
 10 11  1  0  0  0
 11 12  1  0  0  0
 12 13  1  0  0  0
 12 14  2  0  0  0
 14 16  1  0  0  0
 15 17  1  0  0  0
M  END
> <minimizedAffinity>
-6.92378

$$$$



 17 16  0  0  0  0  0  0  0  0999 V2000
  -47.5652   57.4724   58.9922 C   0  0  0  0  0  0  0  0  0  0  0  0
  -46.7725   58.3849   58.1001 C   0  0  0  0  0  0  0  0  0  0  0  0
  -47.0299   57.0590   60.1494 C   0  0  0  0  0  0  0  0  0  0  0  0
  -48.9570   57.0233   58.5997 C   0  0  0  0  0  0  0  0  0  0  0  0
  -49.9285   57.1974   59.7625 C   0  0  0  0  0  0  0  0  0  0  0  0
  -49.5104   57.9604   62.4924 C   0  0  0  0  0  0  0  0  0  0  0  0
  -49.8043   59.0023   61.4567 C   0  0  0  0  0  0  0  0  0  0  0  0
  -49.8810   60.4449   61.8573 C   0  0  0  0  0  0  0  0  0  0  0  0
  -50.0026   58.6485   60.1782 C   0  0  0  0  0  0  0  0  0  0  0  0
  -45.6435   57.5084   60.5495 C   0  0  0  0  0  0  0  0  0  0  0  0
  -45.6438   57.9901   61.9952 C   0  0  0  0  0  0  0  0  0  0  0  0
  -45.3380   59.4713   62.0488 C   0  0  0  0  0  0  0  0  0  0  0  0
  -44.1487   59.9564   62.8181 C   0  0  0  0  0  0  0  0  0  0  0  0
  -46.1186   60.3505   61.4034 C   0  0  0  0  0  0  0  0  0  0  0  0
  -47.0437   62.5802   61.3404 O   0  0  0  0  0  0  0  0  0  0  0  0
  -45.8263   61.8331   61.4415 C   0  0  0  0  0  0  0  0  0  0  0  0
  -46.8439   63.5290   61.3659 H   0  0  0  0  0  0  0  0  0  0  0  0
  6  7  1  0  0  0
 15 16  1  0  0  0
  7  8  1  0  0  0
  7  9  2  0  0  0
  9  5  1  0  0  0
  5  4  1  0  0  0
  4  1  1  0  0  0
  1  2  1  0  0  0
  1  3  2  0  0  0
  3 10  1  0  0  0
 10 11  1  0  0  0
 11 12  1  0  0  0
 12 13  1  0  0  0
 12 14  2  0  0  0
 14 16  1  0  0  0
 15 17  1  0  0  0
M  END
> <minimizedAffinity>
-6.89868

$$$$



 17 16  0  0  0  0  0  0  0  0999 V2000
  -38.2900   57.4667   61.5686 C   0  0  0  0  0  0  0  0  0  0  0  0
  -38.8466   58.4794   60.6086 C   0  0  0  0  0  0  0  0  0  0  0  0
  -39.1204   56.5925   62.1542 C   0  0  0  0  0  0  0  0  0  0  0  0
  -36.8075   57.4222   61.8735 C   0  0  0  0  0  0  0  0  0  0  0  0
  -36.5675   57.3558   63.3782 C   0  0  0  0  0  0  0  0  0  0  0  0
  -38.6348   57.9467   65.2720 C   0  0  0  0  0  0  0  0  0  0  0  0
  -37.6478   59.0040   64.8816 C   0  0  0  0  0  0  0  0  0  0  0  0
  -37.7497   60.3725   65.4851 C   0  0  0  0  0  0  0  0  0  0  0  0
  -36.6799   58.7315   63.9938 C   0  0  0  0  0  0  0  0  0  0  0  0
  -40.6003   56.6280   61.8494 C   0  0  0  0  0  0  0  0  0  0  0  0
  -41.3512   55.6826   62.7791 C   0  0  0  0  0  0  0  0  0  0  0  0
  -42.1967   56.4749   63.7526 C   0  0  0  0  0  0  0  0  0  0  0  0
  -42.2532   57.9670   63.6432 C   0  0  0  0  0  0  0  0  0  0  0  0
  -42.9034   55.8490   64.7053 C   0  0  0  0  0  0  0  0  0  0  0  0
  -45.1211   56.1958   65.5957 O   0  0  0  0  0  0  0  0  0  0  0  0
  -43.7572   56.6231   65.6836 C   0  0  0  0  0  0  0  0  0  0  0  0
  -45.6588   56.6989   66.2272 H   0  0  0  0  0  0  0  0  0  0  0  0
  6  7  1  0  0  0
 15 16  1  0  0  0
  7  8  1  0  0  0
  7  9  2  0  0  0
  9  5  1  0  0  0
  5  4  1  0  0  0
  4  1  1  0  0  0
  1  2  1  0  0  0
  1  3  2  0  0  0
  3 10  1  0  0  0
 10 11  1  0  0  0
 11 12  1  0  0  0
 12 13  1  0  0  0
 12 14  2  0  0  0
 14 16  1  0  0  0
 15 17  1  0  0  0
M  END
> <minimizedAffinity>
-6.75629

$$$$



 17 16  0  0  0  0  0  0  0  0999 V2000
  -47.4153   57.3052   58.7374 C   0  0  0  0  0  0  0  0  0  0  0  0
  -46.4996   57.9842   57.7589 C   0  0  0  0  0  0  0  0  0  0  0  0
  -46.9848   57.0716   59.9851 C   0  0  0  0  0  0  0  0  0  0  0  0
  -48.8133   56.8903   58.3297 C   0  0  0  0  0  0  0  0  0  0  0  0
  -49.7794   57.0230   59.5023 C   0  0  0  0  0  0  0  0  0  0  0  0
  -49.5908   57.8066   62.2518 C   0  0  0  0  0  0  0  0  0  0  0  0
  -49.8385   58.8358   61.1917 C   0  0  0  0  0  0  0  0  0  0  0  0
  -49.9897   60.2764   61.5778 C   0  0  0  0  0  0  0  0  0  0  0  0
  -49.9294   58.4723   59.9037 C   0  0  0  0  0  0  0  0  0  0  0  0
  -45.5925   57.4886   60.3997 C   0  0  0  0  0  0  0  0  0  0  0  0
  -45.6627   58.4768   61.5576 C   0  0  0  0  0  0  0  0  0  0  0  0
  -44.7922   58.0002   62.7001 C   0  0  0  0  0  0  0  0  0  0  0  0
  -43.3653   57.6281   62.4410 C   0  0  0  0  0  0  0  0  0  0  0  0
  -45.2871   57.9193   63.9441 C   0  0  0  0  0  0  0  0  0  0  0  0
  -44.8475   56.1481   65.5256 O   0  0  0  0  0  0  0  0  0  0  0  0
  -44.4315   57.4501   65.0987 C   0  0  0  0  0  0  0  0  0  0  0  0
  -44.2921   55.8578   66.2659 H   0  0  0  0  0  0  0  0  0  0  0  0
  6  7  1  0  0  0
 15 16  1  0  0  0
  7  8  1  0  0  0
  7  9  2  0  0  0
  9  5  1  0  0  0
  5  4  1  0  0  0
  4  1  1  0  0  0
  1  2  1  0  0  0
  1  3  2  0  0  0
  3 10  1  0  0  0
 10 11  1  0  0  0
 11 12  1  0  0  0
 12 13  1  0  0  0
 12 14  2  0  0  0
 14 16  1  0  0  0
 15 17  1  0  0  0
M  END
> <minimizedAffinity>
-6.75484

$$$$
