


 21 20  0  0  0  0  0  0  0  0999 V2000
  -50.4805   57.8848   62.1415 C   0  0  0  0  0  0  0  0  0  0  0  0
  -50.8172   57.4311   60.7302 C   0  0  0  0  0  0  0  0  0  0  0  0
  -49.5944   56.9058   59.9994 C   0  0  0  0  0  0  0  0  0  0  0  0
  -48.3605   57.7447   60.3182 C   0  0  0  0  0  0  0  0  0  0  0  0
  -47.7964   58.3540   59.0422 C   0  0  0  0  0  0  0  0  0  0  0  0
  -46.8819   57.3713   58.3280 C   0  0  0  0  0  0  0  0  0  0  0  0
  -47.0838   57.4305   56.8174 C   0  0  0  0  0  0  0  0  0  0  0  0
  -47.8718   56.2186   56.3597 C   0  0  0  0  0  0  0  0  0  0  0  0
  -47.3371   55.0803   56.3627 O   0  0  0  0  0  0  0  0  0  0  0  0
  -49.0617   56.3429   55.9701 O   0  0  0  0  0  0  0  0  0  0  0  0
  -49.4672   57.1876   55.9649 H   0  0  0  0  0  0  0  0  0  0  0  0
  -50.6785   59.3793   62.1979 C   0  0  0  0  0  0  0  0  0  0  0  0
  -51.4728   59.9724   63.2825 C   0  0  0  0  0  0  0  0  0  0  0  0
  -50.7881   60.6891   64.4248 C   0  0  0  0  0  0  0  0  0  0  0  0
  -50.6592   59.7595   65.6309 C   0  0  0  0  0  0  0  0  0  0  0  0
  -49.2108   59.4817   66.0239 C   0  0  0  0  0  0  0  0  0  0  0  0
  -48.6059   58.3526   65.1852 C   0  0  0  0  0  0  0  0  0  0  0  0
  -47.2568   58.6831   64.5353 C   0  0  0  0  0  0  0  0  0  0  0  0
  -46.7342   60.0632   64.9557 C   0  0  0  0  0  0  0  0  0  0  0  0
  -45.2363   60.0560   65.2713 C   0  0  0  0  0  0  0  0  0  0  0  0
  -44.5608   58.7086   64.9890 C   0  0  0  0  0  0  0  0  0  0  0  0
  8  9  2  0  0  0
  8  7  1  0  0  0
  8 10  1  0  0  0
  7  6  1  0  0  0
  6  5  1  0  0  0
  5  4  1  0  0  0
  4  3  1  0  0  0
  3  2  1  0  0  0
  2  1  1  0  0  0
  1 12  1  0  0  0
 12 13  1  0  0  0
 13 14  1  0  0  0
 14 15  1  0  0  0
 15 16  1  0  0  0
 16 17  1  0  0  0
 17 18  1  0  0  0
 18 19  1  0  0  0
 19 20  1  0  0  0
 20 21  1  0  0  0
 10 11  1  0  0  0
M  END
> <minimizedAffinity>
-7.54588

$$$$



 21 20  0  0  0  0  0  0  0  0999 V2000
  -50.0595   60.2777   62.1282 C   0  0  0  0  0  0  0  0  0  0  0  0
  -49.4322   58.9962   61.6037 C   0  0  0  0  0  0  0  0  0  0  0  0
  -50.4130   57.8375   61.6257 C   0  0  0  0  0  0  0  0  0  0  0  0
  -50.1583   56.8791   60.4662 C   0  0  0  0  0  0  0  0  0  0  0  0
  -49.3171   57.5616   59.3966 C   0  0  0  0  0  0  0  0  0  0  0  0
  -48.0679   56.7515   59.0876 C   0  0  0  0  0  0  0  0  0  0  0  0
  -47.4262   57.2075   57.7812 C   0  0  0  0  0  0  0  0  0  0  0  0
  -47.8427   56.2795   56.6567 C   0  0  0  0  0  0  0  0  0  0  0  0
  -47.7969   55.0330   56.8175 O   0  0  0  0  0  0  0  0  0  0  0  0
  -48.2317   56.7480   55.5557 O   0  0  0  0  0  0  0  0  0  0  0  0
  -48.2686   57.6756   55.4280 H   0  0  0  0  0  0  0  0  0  0  0  0
  -51.2229   59.8881   63.0060 C   0  0  0  0  0  0  0  0  0  0  0  0
  -51.2710   60.3426   64.4025 C   0  0  0  0  0  0  0  0  0  0  0  0
  -50.1079   60.0755   65.3317 C   0  0  0  0  0  0  0  0  0  0  0  0
  -49.9412   58.5724   65.5518 C   0  0  0  0  0  0  0  0  0  0  0  0
  -48.5711   58.0508   65.1270 C   0  0  0  0  0  0  0  0  0  0  0  0
  -47.4997   59.1406   65.2193 C   0  0  0  0  0  0  0  0  0  0  0  0
  -46.8437   59.2855   66.5977 C   0  0  0  0  0  0  0  0  0  0  0  0
  -45.3585   58.9004   66.5755 C   0  0  0  0  0  0  0  0  0  0  0  0
  -45.1389   57.4114   66.2959 C   0  0  0  0  0  0  0  0  0  0  0  0
  -44.3102   57.1445   65.0335 C   0  0  0  0  0  0  0  0  0  0  0  0
  8  9  2  0  0  0
  8  7  1  0  0  0
  8 10  1  0  0  0
  7  6  1  0  0  0
  6  5  1  0  0  0
  5  4  1  0  0  0
  4  3  1  0  0  0
  3  2  1  0  0  0
  2  1  1  0  0  0
  1 12  1  0  0  0
 12 13  1  0  0  0
 13 14  1  0  0  0
 14 15  1  0  0  0
 15 16  1  0  0  0
 16 17  1  0  0  0
 17 18  1  0  0  0
 18 19  1  0  0  0
 19 20  1  0  0  0
 20 21  1  0  0  0
 10 11  1  0  0  0
M  END
> <minimizedAffinity>
-7.50641

$$$$



 21 20  0  0  0  0  0  0  0  0999 V2000
  -50.3848   58.2448   62.5780 C   0  0  0  0  0  0  0  0  0  0  0  0
  -51.0231   57.6529   61.3318 C   0  0  0  0  0  0  0  0  0  0  0  0
  -50.0020   56.9535   60.4524 C   0  0  0  0  0  0  0  0  0  0  0  0
  -48.6241   57.5933   60.5940 C   0  0  0  0  0  0  0  0  0  0  0  0
  -48.3380   58.4927   59.3996 C   0  0  0  0  0  0  0  0  0  0  0  0
  -47.2543   57.8954   58.5159 C   0  0  0  0  0  0  0  0  0  0  0  0
  -47.8462   57.3183   57.2341 C   0  0  0  0  0  0  0  0  0  0  0  0
  -47.6330   55.8173   57.2040 C   0  0  0  0  0  0  0  0  0  0  0  0
  -47.8282   55.1314   58.2398 O   0  0  0  0  0  0  0  0  0  0  0  0
  -47.2559   55.2490   56.1467 O   0  0  0  0  0  0  0  0  0  0  0  0
  -47.1084   55.7531   55.3708 H   0  0  0  0  0  0  0  0  0  0  0  0
  -51.1696   59.4787   62.9484 C   0  0  0  0  0  0  0  0  0  0  0  0
  -50.5438   60.5266   63.7664 C   0  0  0  0  0  0  0  0  0  0  0  0
  -49.0629   60.8078   63.6427 C   0  0  0  0  0  0  0  0  0  0  0  0
  -48.3478   60.4603   64.9479 C   0  0  0  0  0  0  0  0  0  0  0  0
  -47.4457   59.2346   64.8315 C   0  0  0  0  0  0  0  0  0  0  0  0
  -48.0190   58.0383   65.5959 C   0  0  0  0  0  0  0  0  0  0  0  0
  -47.0207   56.9056   65.8643 C   0  0  0  0  0  0  0  0  0  0  0  0
  -45.6206   57.4355   66.2009 C   0  0  0  0  0  0  0  0  0  0  0  0
  -44.5572   56.9680   65.2037 C   0  0  0  0  0  0  0  0  0  0  0  0
  -43.1764   57.5879   65.4505 C   0  0  0  0  0  0  0  0  0  0  0  0
  8  9  2  0  0  0
  8  7  1  0  0  0
  8 10  1  0  0  0
  7  6  1  0  0  0
  6  5  1  0  0  0
  5  4  1  0  0  0
  4  3  1  0  0  0
  3  2  1  0  0  0
  2  1  1  0  0  0
  1 12  1  0  0  0
 12 13  1  0  0  0
 13 14  1  0  0  0
 14 15  1  0  0  0
 15 16  1  0  0  0
 16 17  1  0  0  0
 17 18  1  0  0  0
 18 19  1  0  0  0
 19 20  1  0  0  0
 20 21  1  0  0  0
 10 11  1  0  0  0
M  END
> <minimizedAffinity>
-7.49095

$$$$



 21 20  0  0  0  0  0  0  0  0999 V2000
  -51.0594   59.6870   62.8699 C   0  0  0  0  0  0  0  0  0  0  0  0
  -49.7928   60.0089   62.0934 C   0  0  0  0  0  0  0  0  0  0  0  0
  -49.1044   58.7526   61.5905 C   0  0  0  0  0  0  0  0  0  0  0  0
  -50.0760   57.8641   60.8194 C   0  0  0  0  0  0  0  0  0  0  0  0
  -49.5852   57.6650   59.3922 C   0  0  0  0  0  0  0  0  0  0  0  0
  -48.0669   57.5984   59.3432 C   0  0  0  0  0  0  0  0  0  0  0  0
  -47.5577   57.7095   57.9097 C   0  0  0  0  0  0  0  0  0  0  0  0
  -47.9400   56.4639   57.1342 C   0  0  0  0  0  0  0  0  0  0  0  0
  -47.7075   55.3252   57.6148 O   0  0  0  0  0  0  0  0  0  0  0  0
  -48.4870   56.5598   56.0052 O   0  0  0  0  0  0  0  0  0  0  0  0
  -48.6635   57.4046   55.6403 H   0  0  0  0  0  0  0  0  0  0  0  0
  -51.0210   60.4813   64.1518 C   0  0  0  0  0  0  0  0  0  0  0  0
  -50.6162   59.8299   65.4051 C   0  0  0  0  0  0  0  0  0  0  0  0
  -50.0254   58.4378   65.3847 C   0  0  0  0  0  0  0  0  0  0  0  0
  -48.5206   58.4982   65.6446 C   0  0  0  0  0  0  0  0  0  0  0  0
  -48.0581   59.8467   66.1897 C   0  0  0  0  0  0  0  0  0  0  0  0
  -46.8273   60.3651   65.4410 C   0  0  0  0  0  0  0  0  0  0  0  0
  -45.4909   59.7797   65.9130 C   0  0  0  0  0  0  0  0  0  0  0  0
  -44.3128   60.2613   65.0559 C   0  0  0  0  0  0  0  0  0  0  0  0
  -43.4502   59.1080   64.5370 C   0  0  0  0  0  0  0  0  0  0  0  0
  -44.1970   57.7702   64.4720 C   0  0  0  0  0  0  0  0  0  0  0  0
  8  9  2  0  0  0
  8  7  1  0  0  0
  8 10  1  0  0  0
  7  6  1  0  0  0
  6  5  1  0  0  0
  5  4  1  0  0  0
  4  3  1  0  0  0
  3  2  1  0  0  0
  2  1  1  0  0  0
  1 12  1  0  0  0
 12 13  1  0  0  0
 13 14  1  0  0  0
 14 15  1  0  0  0
 15 16  1  0  0  0
 16 17  1  0  0  0
 17 18  1  0  0  0
 18 19  1  0  0  0
 19 20  1  0  0  0
 20 21  1  0  0  0
 10 11  1  0  0  0
M  END
> <minimizedAffinity>
-7.40448

$$$$



 21 20  0  0  0  0  0  0  0  0999 V2000
  -50.4848   59.6104   65.6408 C   0  0  0  0  0  0  0  0  0  0  0  0
  -49.0715   59.0641   65.5183 C   0  0  0  0  0  0  0  0  0  0  0  0
  -48.0548   59.9745   66.1838 C   0  0  0  0  0  0  0  0  0  0  0  0
  -47.1969   60.6922   65.1461 C   0  0  0  0  0  0  0  0  0  0  0  0
  -45.7527   60.2206   65.2425 C   0  0  0  0  0  0  0  0  0  0  0  0
  -45.5361   59.3829   66.4930 C   0  0  0  0  0  0  0  0  0  0  0  0
  -44.3459   58.4438   66.3263 C   0  0  0  0  0  0  0  0  0  0  0  0
  -44.7873   57.1824   65.6099 C   0  0  0  0  0  0  0  0  0  0  0  0
  -44.0150   56.6167   64.7944 O   0  0  0  0  0  0  0  0  0  0  0  0
  -45.9282   56.6961   65.8219 O   0  0  0  0  0  0  0  0  0  0  0  0
  -46.5095   57.1117   66.4280 H   0  0  0  0  0  0  0  0  0  0  0  0
  -50.7447   60.4739   64.4314 C   0  0  0  0  0  0  0  0  0  0  0  0
  -51.4657   59.9198   63.2772 C   0  0  0  0  0  0  0  0  0  0  0  0
  -50.7437   59.0480   62.2741 C   0  0  0  0  0  0  0  0  0  0  0  0
  -49.4316   59.7062   61.8491 C   0  0  0  0  0  0  0  0  0  0  0  0
  -48.9836   59.3036   60.4466 C   0  0  0  0  0  0  0  0  0  0  0  0
  -49.8379   58.1625   59.8879 C   0  0  0  0  0  0  0  0  0  0  0  0
  -49.1196   57.2488   58.8875 C   0  0  0  0  0  0  0  0  0  0  0  0
  -47.7226   57.7708   58.5262 C   0  0  0  0  0  0  0  0  0  0  0  0
  -47.3224   57.4381   57.0865 C   0  0  0  0  0  0  0  0  0  0  0  0
  -47.6729   56.0036   56.6730 C   0  0  0  0  0  0  0  0  0  0  0  0
  8  9  2  0  0  0
  8  7  1  0  0  0
  8 10  1  0  0  0
  7  6  1  0  0  0
  6  5  1  0  0  0
  5  4  1  0  0  0
  4  3  1  0  0  0
  3  2  1  0  0  0
  2  1  1  0  0  0
  1 12  1  0  0  0
 12 13  1  0  0  0
 13 14  1  0  0  0
 14 15  1  0  0  0
 15 16  1  0  0  0
 16 17  1  0  0  0
 17 18  1  0  0  0
 18 19  1  0  0  0
 19 20  1  0  0  0
 20 21  1  0  0  0
 10 11  1  0  0  0
M  END
> <minimizedAffinity>
-7.34632

$$$$



 21 20  0  0  0  0  0  0  0  0999 V2000
  -50.5822   60.5589   64.5301 C   0  0  0  0  0  0  0  0  0  0  0  0
  -50.5376   59.5263   65.6448 C   0  0  0  0  0  0  0  0  0  0  0  0
  -49.1962   58.8176   65.7043 C   0  0  0  0  0  0  0  0  0  0  0  0
  -48.1386   59.5738   64.9058 C   0  0  0  0  0  0  0  0  0  0  0  0
  -46.9827   58.6469   64.5563 C   0  0  0  0  0  0  0  0  0  0  0  0
  -46.9630   57.4327   65.4715 C   0  0  0  0  0  0  0  0  0  0  0  0
  -45.6503   57.3472   66.2434 C   0  0  0  0  0  0  0  0  0  0  0  0
  -45.4293   58.6317   67.0183 C   0  0  0  0  0  0  0  0  0  0  0  0
  -44.4081   59.3326   66.8000 O   0  0  0  0  0  0  0  0  0  0  0  0
  -46.2610   59.0025   67.8865 O   0  0  0  0  0  0  0  0  0  0  0  0
  -47.0243   58.4858   68.0550 H   0  0  0  0  0  0  0  0  0  0  0  0
  -51.4584   60.0063   63.4334 C   0  0  0  0  0  0  0  0  0  0  0  0
  -50.9005   59.0614   62.4563 C   0  0  0  0  0  0  0  0  0  0  0  0
  -49.5156   59.2802   61.8890 C   0  0  0  0  0  0  0  0  0  0  0  0
  -49.0158   58.0065   61.2081 C   0  0  0  0  0  0  0  0  0  0  0  0
  -49.9272   57.5303   60.0802 C   0  0  0  0  0  0  0  0  0  0  0  0
  -49.1880   57.4829   58.7403 C   0  0  0  0  0  0  0  0  0  0  0  0
  -47.7652   58.0542   58.7677 C   0  0  0  0  0  0  0  0  0  0  0  0
  -46.9763   57.7046   57.4988 C   0  0  0  0  0  0  0  0  0  0  0  0
  -47.7971   56.8836   56.5010 C   0  0  0  0  0  0  0  0  0  0  0  0
  -47.4793   55.3838   56.5392 C   0  0  0  0  0  0  0  0  0  0  0  0
  8  9  2  0  0  0
  8  7  1  0  0  0
  8 10  1  0  0  0
  7  6  1  0  0  0
  6  5  1  0  0  0
  5  4  1  0  0  0
  4  3  1  0  0  0
  3  2  1  0  0  0
  2  1  1  0  0  0
  1 12  1  0  0  0
 12 13  1  0  0  0
 13 14  1  0  0  0
 14 15  1  0  0  0
 15 16  1  0  0  0
 16 17  1  0  0  0
 17 18  1  0  0  0
 18 19  1  0  0  0
 19 20  1  0  0  0
 20 21  1  0  0  0
 10 11  1  0  0  0
M  END
> <minimizedAffinity>
-7.32653

$$$$



 21 20  0  0  0  0  0  0  0  0999 V2000
  -50.3615   59.0695   65.5849 C   0  0  0  0  0  0  0  0  0  0  0  0
  -48.9051   59.3867   65.8838 C   0  0  0  0  0  0  0  0  0  0  0  0
  -48.0113   58.1757   65.6845 C   0  0  0  0  0  0  0  0  0  0  0  0
  -46.8922   58.4755   64.6916 C   0  0  0  0  0  0  0  0  0  0  0  0
  -46.1498   59.7390   65.1037 C   0  0  0  0  0  0  0  0  0  0  0  0
  -45.1114   59.4359   66.1725 C   0  0  0  0  0  0  0  0  0  0  0  0
  -43.7574   60.0370   65.8096 C   0  0  0  0  0  0  0  0  0  0  0  0
  -42.7782   59.8122   66.9454 C   0  0  0  0  0  0  0  0  0  0  0  0
  -42.1884   58.7074   67.0607 O   0  0  0  0  0  0  0  0  0  0  0  0
  -42.5525   60.7250   67.7813 O   0  0  0  0  0  0  0  0  0  0  0  0
  -42.9880   61.5509   67.7022 H   0  0  0  0  0  0  0  0  0  0  0  0
  -50.8938   60.1692   64.6999 C   0  0  0  0  0  0  0  0  0  0  0  0
  -51.1434   59.9071   63.2759 C   0  0  0  0  0  0  0  0  0  0  0  0
  -50.0236   60.0419   62.2682 C   0  0  0  0  0  0  0  0  0  0  0  0
  -49.3904   58.6780   61.9957 C   0  0  0  0  0  0  0  0  0  0  0  0
  -50.2887   57.7496   61.1827 C   0  0  0  0  0  0  0  0  0  0  0  0
  -49.8368   57.6645   59.7223 C   0  0  0  0  0  0  0  0  0  0  0  0
  -48.4720   58.3001   59.4312 C   0  0  0  0  0  0  0  0  0  0  0  0
  -47.4694   57.2852   58.8659 C   0  0  0  0  0  0  0  0  0  0  0  0
  -46.9866   57.6526   57.4604 C   0  0  0  0  0  0  0  0  0  0  0  0
  -47.7572   56.9360   56.3450 C   0  0  0  0  0  0  0  0  0  0  0  0
  8  9  2  0  0  0
  8  7  1  0  0  0
  8 10  1  0  0  0
  7  6  1  0  0  0
  6  5  1  0  0  0
  5  4  1  0  0  0
  4  3  1  0  0  0
  3  2  1  0  0  0
  2  1  1  0  0  0
  1 12  1  0  0  0
 12 13  1  0  0  0
 13 14  1  0  0  0
 14 15  1  0  0  0
 15 16  1  0  0  0
 16 17  1  0  0  0
 17 18  1  0  0  0
 18 19  1  0  0  0
 19 20  1  0  0  0
 20 21  1  0  0  0
 10 11  1  0  0  0
M  END
> <minimizedAffinity>
-7.24585

$$$$



 21 20  0  0  0  0  0  0  0  0999 V2000
  -50.9496   58.7753   62.4982 C   0  0  0  0  0  0  0  0  0  0  0  0
  -49.9933   57.7747   61.8695 C   0  0  0  0  0  0  0  0  0  0  0  0
  -50.5501   57.1941   60.5818 C   0  0  0  0  0  0  0  0  0  0  0  0
  -49.8719   57.8106   59.3620 C   0  0  0  0  0  0  0  0  0  0  0  0
  -48.4242   58.1538   59.6842 C   0  0  0  0  0  0  0  0  0  0  0  0
  -47.5365   57.9689   58.4635 C   0  0  0  0  0  0  0  0  0  0  0  0
  -47.2025   56.4969   58.2444 C   0  0  0  0  0  0  0  0  0  0  0  0
  -47.7557   56.0413   56.9082 C   0  0  0  0  0  0  0  0  0  0  0  0
  -47.9962   56.8826   56.0048 O   0  0  0  0  0  0  0  0  0  0  0  0
  -47.9821   54.8221   56.6953 O   0  0  0  0  0  0  0  0  0  0  0  0
  -47.8056   54.1892   57.3633 H   0  0  0  0  0  0  0  0  0  0  0  0
  -50.1886   59.5228   63.5649 C   0  0  0  0  0  0  0  0  0  0  0  0
  -48.9630   58.9439   64.1321 C   0  0  0  0  0  0  0  0  0  0  0  0
  -49.0270   58.1036   65.3880 C   0  0  0  0  0  0  0  0  0  0  0  0
  -47.6384   57.5711   65.7393 C   0  0  0  0  0  0  0  0  0  0  0  0
  -46.5352   58.1333   64.8468 C   0  0  0  0  0  0  0  0  0  0  0  0
  -45.1752   57.5092   65.1708 C   0  0  0  0  0  0  0  0  0  0  0  0
  -43.9724   58.2177   64.5361 C   0  0  0  0  0  0  0  0  0  0  0  0
  -43.7051   59.5877   65.1732 C   0  0  0  0  0  0  0  0  0  0  0  0
  -43.6969   59.5357   66.7031 C   0  0  0  0  0  0  0  0  0  0  0  0
  -42.4677   60.2060   67.3288 C   0  0  0  0  0  0  0  0  0  0  0  0
  8  9  2  0  0  0
  8  7  1  0  0  0
  8 10  1  0  0  0
  7  6  1  0  0  0
  6  5  1  0  0  0
  5  4  1  0  0  0
  4  3  1  0  0  0
  3  2  1  0  0  0
  2  1  1  0  0  0
  1 12  1  0  0  0
 12 13  1  0  0  0
 13 14  1  0  0  0
 14 15  1  0  0  0
 15 16  1  0  0  0
 16 17  1  0  0  0
 17 18  1  0  0  0
 18 19  1  0  0  0
 19 20  1  0  0  0
 20 21  1  0  0  0
 10 11  1  0  0  0
M  END
> <minimizedAffinity>
-7.22990

$$$$



 21 20  0  0  0  0  0  0  0  0999 V2000
  -50.4708   60.5345   64.0398 C   0  0  0  0  0  0  0  0  0  0  0  0
  -51.4644   59.8253   63.1338 C   0  0  0  0  0  0  0  0  0  0  0  0
  -50.7971   58.7470   62.2990 C   0  0  0  0  0  0  0  0  0  0  0  0
  -49.5473   59.2821   61.6066 C   0  0  0  0  0  0  0  0  0  0  0  0
  -48.6633   58.1281   61.1543 C   0  0  0  0  0  0  0  0  0  0  0  0
  -48.9548   57.7531   59.7098 C   0  0  0  0  0  0  0  0  0  0  0  0
  -47.7028   57.8735   58.8471 C   0  0  0  0  0  0  0  0  0  0  0  0
  -47.5461   56.6271   57.9980 C   0  0  0  0  0  0  0  0  0  0  0  0
  -47.6911   55.4895   58.5143 O   0  0  0  0  0  0  0  0  0  0  0  0
  -47.2659   56.7210   56.7750 O   0  0  0  0  0  0  0  0  0  0  0  0
  -47.1562   57.5650   56.3829 H   0  0  0  0  0  0  0  0  0  0  0  0
  -50.4574   59.8040   65.3596 C   0  0  0  0  0  0  0  0  0  0  0  0
  -49.2053   59.2215   65.8616 C   0  0  0  0  0  0  0  0  0  0  0  0
  -48.5229   58.1080   65.0989 C   0  0  0  0  0  0  0  0  0  0  0  0
  -47.1542   58.5701   64.6002 C   0  0  0  0  0  0  0  0  0  0  0  0
  -46.7482   59.9388   65.1402 C   0  0  0  0  0  0  0  0  0  0  0  0
  -45.2282   60.0630   65.2754 C   0  0  0  0  0  0  0  0  0  0  0  0
  -44.6254   59.3299   66.4799 C   0  0  0  0  0  0  0  0  0  0  0  0
  -43.2689   59.9152   66.8944 C   0  0  0  0  0  0  0  0  0  0  0  0
  -42.1440   58.8773   66.8635 C   0  0  0  0  0  0  0  0  0  0  0  0
  -41.4896   58.7294   65.4845 C   0  0  0  0  0  0  0  0  0  0  0  0
  8  9  2  0  0  0
  8  7  1  0  0  0
  8 10  1  0  0  0
  7  6  1  0  0  0
  6  5  1  0  0  0
  5  4  1  0  0  0
  4  3  1  0  0  0
  3  2  1  0  0  0
  2  1  1  0  0  0
  1 12  1  0  0  0
 12 13  1  0  0  0
 13 14  1  0  0  0
 14 15  1  0  0  0
 15 16  1  0  0  0
 16 17  1  0  0  0
 17 18  1  0  0  0
 18 19  1  0  0  0
 19 20  1  0  0  0
 20 21  1  0  0  0
 10 11  1  0  0  0
M  END
> <minimizedAffinity>
-7.17703

$$$$
