


 37 36  0  0  0  0  0  0  0  0999 V2000
  -42.7896   59.8214   66.7759 O   0  0  0  0  0  0  0  0  0  0  0  0
  -42.5444   59.1499   65.8209 C   0  0  0  0  0  0  0  0  0  0  0  0
  -43.0672   57.7681   65.6012 C   0  0  0  0  0  0  0  0  0  0  0  0
  -44.4192   57.7503   64.9133 C   0  0  0  0  0  0  0  0  0  0  0  0
  -45.5475   57.3559   65.8417 C   0  0  0  0  0  0  0  0  0  0  0  0
  -46.8756   58.0007   65.5223 C   0  0  0  0  0  0  0  0  0  0  0  0
  -47.1286   59.2820   66.2750 C   0  0  0  0  0  0  0  0  0  0  0  0
  -48.4156   59.9451   65.8631 C   0  0  0  0  0  0  0  0  0  0  0  0
  -49.4259   59.0443   65.2165 C   0  0  0  0  0  0  0  0  0  0  0  0
  -50.5487   59.7711   64.6065 C   0  0  0  0  0  0  0  0  0  0  0  0
  -50.5933   60.3465   63.4252 C   0  0  0  0  0  0  0  0  0  0  0  0
  -49.5293   60.3926   62.3906 C   0  0  0  0  0  0  0  0  0  0  0  0
  -49.8032   59.5892   61.1357 C   0  0  0  0  0  0  0  0  0  0  0  0
  -50.1359   58.1516   61.4270 C   0  0  0  0  0  0  0  0  0  0  0  0
  -50.2130   57.2645   60.2109 C   0  0  0  0  0  0  0  0  0  0  0  0
  -49.1742   56.1648   60.2263 C   0  0  0  0  0  0  0  0  0  0  0  0
  -48.4311   55.9773   58.9331 C   0  0  0  0  0  0  0  0  0  0  0  0
  -47.9779   57.2478   58.3334 C   0  0  0  0  0  0  0  0  0  0  0  0
  -47.0306   57.0658   57.2354 C   0  0  0  0  0  0  0  0  0  0  0  0
  -41.7584   59.5441   64.8191 O   0  0  0  0  0  0  0  0  0  0  0  0
  -42.0374   60.8276   64.2169 C   0  0  0  0  0  0  0  0  0  0  0  0
  -40.8310   61.7043   64.4624 C   0  0  0  0  0  0  0  0  0  0  0  0
  -40.8218   62.1309   65.8248 O   0  0  0  0  0  0  0  0  0  0  0  0
  -40.7264   61.3591   66.4045 H   0  0  0  0  0  0  0  0  0  0  0  0
  -39.5005   61.0603   64.1566 C   0  0  0  0  0  0  0  0  0  0  0  0
  -38.6492   61.1946   65.3125 O   0  0  0  0  0  0  0  0  0  0  0  0
  -37.1560   61.7119   65.1336 P   0  0  0  0  0  0  0  0  0  0  0  0
  -37.1021   62.4442   63.8523 O   0  0  0  0  0  0  0  0  0  0  0  0
  -36.7953   62.4157   66.3801 O   0  0  0  0  0  0  0  0  0  0  0  0
  -37.3595   63.1977   66.4847 H   0  0  0  0  0  0  0  0  0  0  0  0
  -36.2045   60.4478   65.0166 O   0  0  0  0  0  0  0  0  0  0  0  0
  -35.8004   59.9727   63.7110 C   0  0  0  0  0  0  0  0  0  0  0  0
  -36.1685   58.5069   63.6716 C   0  0  0  0  0  0  0  0  0  0  0  0
  -37.2805   58.1216   62.7162 N   0  0  0  0  0  0  0  0  0  0  0  0
  -38.5202   57.7383   63.4585 C   0  0  0  0  0  0  0  0  0  0  0  0
  -36.8438   56.9594   61.8832 C   0  0  0  0  0  0  0  0  0  0  0  0
  -37.5967   59.2791   61.8220 C   0  0  0  0  0  0  0  0  0  0  0  0
 34 33  1  0  0  0
 34 35  1  0  0  0
 34 36  1  0  0  0
 34 37  1  0  0  0
 22 23  1  0  0  0
 22 25  1  0  0  0
 22 21  1  0  0  0
 27 26  1  0  0  0
 27 28  2  0  0  0
 27 31  1  0  0  0
 27 29  1  0  0  0
 25 26  1  0  0  0
 32 33  1  0  0  0
 32 31  1  0  0  0
 20 21  1  0  0  0
 20  2  1  0  0  0
  1  2  2  0  0  0
  2  3  1  0  0  0
  3  4  1  0  0  0
  4  5  1  0  0  0
  5  6  1  0  0  0
  6  7  1  0  0  0
  7  8  1  0  0  0
  8  9  1  0  0  0
  9 10  1  0  0  0
 10 11  2  0  0  0
 11 12  1  0  0  0
 12 13  1  0  0  0
 13 14  1  0  0  0
 14 15  1  0  0  0
 15 16  1  0  0  0
 16 17  1  0  0  0
 17 18  1  0  0  0
 18 19  1  0  0  0
 23 24  1  0  0  0
 29 30  1  0  0  0
M  CHG 1  28  -1
M  END
> <minimizedAffinity>
-7.92309

> <CNNscore>
0.8521335721

> <CNNaffinity>
7.0089578629

> <CNN_VS>
5.9725685120

> <CNNaffinity_variance>
0.1792163700

$$$$



 37 36  0  0  0  0  0  0  0  0999 V2000
  -43.9078   56.2444   65.0297 O   0  0  0  0  0  0  0  0  0  0  0  0
  -43.9840   57.3350   65.5070 C   0  0  0  0  0  0  0  0  0  0  0  0
  -45.1822   57.8621   66.2264 C   0  0  0  0  0  0  0  0  0  0  0  0
  -46.4900   57.3735   65.6329 C   0  0  0  0  0  0  0  0  0  0  0  0
  -47.0362   58.2997   64.5679 C   0  0  0  0  0  0  0  0  0  0  0  0
  -46.9897   59.7657   64.9292 C   0  0  0  0  0  0  0  0  0  0  0  0
  -48.3363   60.4428   64.9067 C   0  0  0  0  0  0  0  0  0  0  0  0
  -49.3938   59.6413   65.6171 C   0  0  0  0  0  0  0  0  0  0  0  0
  -50.4916   59.1076   64.7452 C   0  0  0  0  0  0  0  0  0  0  0  0
  -50.9228   60.0540   63.7062 C   0  0  0  0  0  0  0  0  0  0  0  0
  -50.7353   59.9699   62.4076 C   0  0  0  0  0  0  0  0  0  0  0  0
  -50.0594   58.8864   61.6503 C   0  0  0  0  0  0  0  0  0  0  0  0
  -50.8923   57.6455   61.4018 C   0  0  0  0  0  0  0  0  0  0  0  0
  -50.3491   56.7944   60.2871 C   0  0  0  0  0  0  0  0  0  0  0  0
  -48.8562   56.8817   60.0987 C   0  0  0  0  0  0  0  0  0  0  0  0
  -48.4067   56.3426   58.7585 C   0  0  0  0  0  0  0  0  0  0  0  0
  -47.6903   57.3343   57.8850 C   0  0  0  0  0  0  0  0  0  0  0  0
  -46.8627   56.6983   56.8410 C   0  0  0  0  0  0  0  0  0  0  0  0
  -47.2238   55.3058   56.5827 C   0  0  0  0  0  0  0  0  0  0  0  0
  -43.0047   58.2378   65.4541 O   0  0  0  0  0  0  0  0  0  0  0  0
  -43.3707   59.6287   65.5942 C   0  0  0  0  0  0  0  0  0  0  0  0
  -42.1460   60.3615   66.0917 C   0  0  0  0  0  0  0  0  0  0  0  0
  -42.3778   60.8283   67.4208 O   0  0  0  0  0  0  0  0  0  0  0  0
  -42.5066   60.0701   68.0119 H   0  0  0  0  0  0  0  0  0  0  0  0
  -40.8717   59.5524   66.0871 C   0  0  0  0  0  0  0  0  0  0  0  0
  -40.0390   60.0140   65.0044 O   0  0  0  0  0  0  0  0  0  0  0  0
  -39.0961   61.2764   65.2204 P   0  0  0  0  0  0  0  0  0  0  0  0
  -38.4876   61.5911   63.9121 O   0  0  0  0  0  0  0  0  0  0  0  0
  -39.9073   62.3040   65.9023 O   0  0  0  0  0  0  0  0  0  0  0  0
  -40.6316   62.5828   65.3204 H   0  0  0  0  0  0  0  0  0  0  0  0
  -37.9325   60.8610   66.2156 O   0  0  0  0  0  0  0  0  0  0  0  0
  -36.5648   60.8242   65.7446 C   0  0  0  0  0  0  0  0  0  0  0  0
  -35.9708   62.1701   66.0928 C   0  0  0  0  0  0  0  0  0  0  0  0
  -34.8627   62.6675   65.1858 N   0  0  0  0  0  0  0  0  0  0  0  0
  -35.3770   63.6767   64.2102 C   0  0  0  0  0  0  0  0  0  0  0  0
  -34.2858   61.5175   64.4241 C   0  0  0  0  0  0  0  0  0  0  0  0
  -33.7876   63.3032   66.0100 C   0  0  0  0  0  0  0  0  0  0  0  0
 34 33  1  0  0  0
 34 35  1  0  0  0
 34 36  1  0  0  0
 34 37  1  0  0  0
 22 23  1  0  0  0
 22 25  1  0  0  0
 22 21  1  0  0  0
 27 26  1  0  0  0
 27 28  2  0  0  0
 27 31  1  0  0  0
 27 29  1  0  0  0
 25 26  1  0  0  0
 32 33  1  0  0  0
 32 31  1  0  0  0
 20 21  1  0  0  0
 20  2  1  0  0  0
  1  2  2  0  0  0
  2  3  1  0  0  0
  3  4  1  0  0  0
  4  5  1  0  0  0
  5  6  1  0  0  0
  6  7  1  0  0  0
  7  8  1  0  0  0
  8  9  1  0  0  0
  9 10  1  0  0  0
 10 11  2  0  0  0
 11 12  1  0  0  0
 12 13  1  0  0  0
 13 14  1  0  0  0
 14 15  1  0  0  0
 15 16  1  0  0  0
 16 17  1  0  0  0
 17 18  1  0  0  0
 18 19  1  0  0  0
 23 24  1  0  0  0
 29 30  1  0  0  0
M  CHG 1  28  -1
M  END
> <minimizedAffinity>
-8.00706

> <CNNscore>
0.7732768059

> <CNNaffinity>
6.6039071083

> <CNN_VS>
5.1066479683

> <CNNaffinity_variance>
0.2842064500

$$$$



 37 36  0  0  0  0  0  0  0  0999 V2000
  -44.0024   56.5154   65.1169 O   0  0  0  0  0  0  0  0  0  0  0  0
  -43.7913   57.6458   65.4342 C   0  0  0  0  0  0  0  0  0  0  0  0
  -44.8014   58.5524   66.0579 C   0  0  0  0  0  0  0  0  0  0  0  0
  -46.1291   57.8666   66.3195 C   0  0  0  0  0  0  0  0  0  0  0  0
  -47.1457   58.1144   65.2262 C   0  0  0  0  0  0  0  0  0  0  0  0
  -47.1583   59.5270   64.6913 C   0  0  0  0  0  0  0  0  0  0  0  0
  -48.3446   60.3400   65.1428 C   0  0  0  0  0  0  0  0  0  0  0  0
  -49.4902   59.4781   65.6014 C   0  0  0  0  0  0  0  0  0  0  0  0
  -50.4849   59.1112   64.5403 C   0  0  0  0  0  0  0  0  0  0  0  0
  -50.7812   60.2128   63.6131 C   0  0  0  0  0  0  0  0  0  0  0  0
  -50.5966   60.2465   62.3118 C   0  0  0  0  0  0  0  0  0  0  0  0
  -50.0622   59.1727   61.4368 C   0  0  0  0  0  0  0  0  0  0  0  0
  -50.6576   57.7965   61.6537 C   0  0  0  0  0  0  0  0  0  0  0  0
  -50.3957   56.8621   60.5046 C   0  0  0  0  0  0  0  0  0  0  0  0
  -49.7394   57.5034   59.3088 C   0  0  0  0  0  0  0  0  0  0  0  0
  -48.3139   57.0382   59.1086 C   0  0  0  0  0  0  0  0  0  0  0  0
  -48.1733   55.6472   58.5562 C   0  0  0  0  0  0  0  0  0  0  0  0
  -47.0431   55.5060   57.6171 C   0  0  0  0  0  0  0  0  0  0  0  0
  -47.2005   56.2951   56.3970 C   0  0  0  0  0  0  0  0  0  0  0  0
  -42.6188   58.2570   65.2654 O   0  0  0  0  0  0  0  0  0  0  0  0
  -42.4257   59.5259   65.9293 C   0  0  0  0  0  0  0  0  0  0  0  0
  -40.9345   59.7522   66.0279 C   0  0  0  0  0  0  0  0  0  0  0  0
  -40.2560   58.8349   65.1699 O   0  0  0  0  0  0  0  0  0  0  0  0
  -40.5029   59.0109   64.2485 H   0  0  0  0  0  0  0  0  0  0  0  0
  -40.4767   61.1497   65.6874 C   0  0  0  0  0  0  0  0  0  0  0  0
  -39.9565   61.1472   64.3427 O   0  0  0  0  0  0  0  0  0  0  0  0
  -38.3891   61.2756   64.1056 P   0  0  0  0  0  0  0  0  0  0  0  0
  -38.1835   61.4444   62.6529 O   0  0  0  0  0  0  0  0  0  0  0  0
  -37.9015   62.3204   65.0273 O   0  0  0  0  0  0  0  0  0  0  0  0
  -38.2988   63.1727   64.7892 H   0  0  0  0  0  0  0  0  0  0  0  0
  -37.7086   59.9105   64.5420 O   0  0  0  0  0  0  0  0  0  0  0  0
  -36.5675   59.4104   63.8061 C   0  0  0  0  0  0  0  0  0  0  0  0
  -35.5185   59.0800   64.8434 C   0  0  0  0  0  0  0  0  0  0  0  0
  -34.0981   58.9318   64.3351 N   0  0  0  0  0  0  0  0  0  0  0  0
  -34.0600   58.1485   63.0624 C   0  0  0  0  0  0  0  0  0  0  0  0
  -33.2722   58.2207   65.3586 C   0  0  0  0  0  0  0  0  0  0  0  0
  -33.5126   60.2855   64.0817 C   0  0  0  0  0  0  0  0  0  0  0  0
 34 33  1  0  0  0
 34 35  1  0  0  0
 34 36  1  0  0  0
 34 37  1  0  0  0
 22 23  1  0  0  0
 22 25  1  0  0  0
 22 21  1  0  0  0
 27 26  1  0  0  0
 27 28  2  0  0  0
 27 31  1  0  0  0
 27 29  1  0  0  0
 25 26  1  0  0  0
 32 33  1  0  0  0
 32 31  1  0  0  0
 20 21  1  0  0  0
 20  2  1  0  0  0
  1  2  2  0  0  0
  2  3  1  0  0  0
  3  4  1  0  0  0
  4  5  1  0  0  0
  5  6  1  0  0  0
  6  7  1  0  0  0
  7  8  1  0  0  0
  8  9  1  0  0  0
  9 10  1  0  0  0
 10 11  2  0  0  0
 11 12  1  0  0  0
 12 13  1  0  0  0
 13 14  1  0  0  0
 14 15  1  0  0  0
 15 16  1  0  0  0
 16 17  1  0  0  0
 17 18  1  0  0  0
 18 19  1  0  0  0
 23 24  1  0  0  0
 29 30  1  0  0  0
M  CHG 1  28  -1
M  END
> <minimizedAffinity>
-7.60121

> <CNNscore>
0.7660515904

> <CNNaffinity>
6.6781196594

> <CNN_VS>
5.1157841682

> <CNNaffinity_variance>
0.2814021409

$$$$



 37 36  0  0  0  0  0  0  0  0999 V2000
  -39.9455   61.7390   65.9736 O   0  0  0  0  0  0  0  0  0  0  0  0
  -39.7706   60.7121   65.3923 C   0  0  0  0  0  0  0  0  0  0  0  0
  -40.8384   59.9538   64.6740 C   0  0  0  0  0  0  0  0  0  0  0  0
  -41.1081   58.5914   65.2844 C   0  0  0  0  0  0  0  0  0  0  0  0
  -42.3809   58.5537   66.1023 C   0  0  0  0  0  0  0  0  0  0  0  0
  -43.2728   57.3681   65.8184 C   0  0  0  0  0  0  0  0  0  0  0  0
  -44.3330   57.6365   64.7810 C   0  0  0  0  0  0  0  0  0  0  0  0
  -45.5438   58.3174   65.3605 C   0  0  0  0  0  0  0  0  0  0  0  0
  -46.8414   57.5866   65.1808 C   0  0  0  0  0  0  0  0  0  0  0  0
  -48.0161   58.4700   65.2061 C   0  0  0  0  0  0  0  0  0  0  0  0
  -48.9262   58.6324   64.2711 C   0  0  0  0  0  0  0  0  0  0  0  0
  -49.0169   57.9493   62.9560 C   0  0  0  0  0  0  0  0  0  0  0  0
  -50.0579   58.5013   62.0037 C   0  0  0  0  0  0  0  0  0  0  0  0
  -50.7523   57.4256   61.2145 C   0  0  0  0  0  0  0  0  0  0  0  0
  -50.2070   57.2125   59.8256 C   0  0  0  0  0  0  0  0  0  0  0  0
  -49.2125   56.0744   59.7595 C   0  0  0  0  0  0  0  0  0  0  0  0
  -47.8169   56.4746   59.3696 C   0  0  0  0  0  0  0  0  0  0  0  0
  -47.3248   55.7721   58.1682 C   0  0  0  0  0  0  0  0  0  0  0  0
  -46.8170   56.6738   57.1360 C   0  0  0  0  0  0  0  0  0  0  0  0
  -38.5912   60.0961   65.3131 O   0  0  0  0  0  0  0  0  0  0  0  0
  -37.5977   60.4256   66.3093 C   0  0  0  0  0  0  0  0  0  0  0  0
  -36.5956   61.3446   65.6492 C   0  0  0  0  0  0  0  0  0  0  0  0
  -37.1139   62.6745   65.6239 O   0  0  0  0  0  0  0  0  0  0  0  0
  -37.2273   62.9947   66.5325 H   0  0  0  0  0  0  0  0  0  0  0  0
  -35.2337   61.3771   66.2993 C   0  0  0  0  0  0  0  0  0  0  0  0
  -34.6418   62.6699   66.0601 O   0  0  0  0  0  0  0  0  0  0  0  0
  -34.3344   63.6333   67.2875 P   0  0  0  0  0  0  0  0  0  0  0  0
  -35.6344   64.1202   67.7917 O   0  0  0  0  0  0  0  0  0  0  0  0
  -33.4412   62.8921   68.1995 O   0  0  0  0  0  0  0  0  0  0  0  0
  -33.9084   62.1185   68.5517 H   0  0  0  0  0  0  0  0  0  0  0  0
  -33.5197   64.8820   66.7452 O   0  0  0  0  0  0  0  0  0  0  0  0
  -33.4722   65.1446   65.3230 C   0  0  0  0  0  0  0  0  0  0  0  0
  -32.0604   64.8215   64.8894 C   0  0  0  0  0  0  0  0  0  0  0  0
  -31.7370   65.0639   63.4284 N   0  0  0  0  0  0  0  0  0  0  0  0
  -31.0041   63.9020   62.8386 C   0  0  0  0  0  0  0  0  0  0  0  0
  -30.8810   66.2831   63.3012 C   0  0  0  0  0  0  0  0  0  0  0  0
  -33.0055   65.2688   62.6615 C   0  0  0  0  0  0  0  0  0  0  0  0
 34 33  1  0  0  0
 34 35  1  0  0  0
 34 36  1  0  0  0
 34 37  1  0  0  0
 22 23  1  0  0  0
 22 25  1  0  0  0
 22 21  1  0  0  0
 27 26  1  0  0  0
 27 28  2  0  0  0
 27 31  1  0  0  0
 27 29  1  0  0  0
 25 26  1  0  0  0
 32 33  1  0  0  0
 32 31  1  0  0  0
 20 21  1  0  0  0
 20  2  1  0  0  0
  1  2  2  0  0  0
  2  3  1  0  0  0
  3  4  1  0  0  0
  4  5  1  0  0  0
  5  6  1  0  0  0
  6  7  1  0  0  0
  7  8  1  0  0  0
  8  9  1  0  0  0
  9 10  1  0  0  0
 10 11  2  0  0  0
 11 12  1  0  0  0
 12 13  1  0  0  0
 13 14  1  0  0  0
 14 15  1  0  0  0
 15 16  1  0  0  0
 16 17  1  0  0  0
 17 18  1  0  0  0
 18 19  1  0  0  0
 23 24  1  0  0  0
 29 30  1  0  0  0
M  CHG 1  28  -1
M  END
> <minimizedAffinity>
-8.16846

> <CNNscore>
0.7641561627

> <CNNaffinity>
6.2856593132

> <CNN_VS>
4.8032255173

> <CNNaffinity_variance>
0.5561837554

$$$$



 37 36  0  0  0  0  0  0  0  0999 V2000
  -39.8825   60.1452   63.0757 O   0  0  0  0  0  0  0  0  0  0  0  0
  -40.4603   60.6742   63.9753 C   0  0  0  0  0  0  0  0  0  0  0  0
  -41.9399   60.6276   64.1744 C   0  0  0  0  0  0  0  0  0  0  0  0
  -42.3405   59.9512   65.4719 C   0  0  0  0  0  0  0  0  0  0  0  0
  -43.8232   59.6581   65.5503 C   0  0  0  0  0  0  0  0  0  0  0  0
  -44.2826   58.5150   64.6762 C   0  0  0  0  0  0  0  0  0  0  0  0
  -45.7400   58.1676   64.8418 C   0  0  0  0  0  0  0  0  0  0  0  0
  -46.4839   59.1879   65.6609 C   0  0  0  0  0  0  0  0  0  0  0  0
  -47.9426   59.3306   65.3417 C   0  0  0  0  0  0  0  0  0  0  0  0
  -48.2534   60.5383   64.5633 C   0  0  0  0  0  0  0  0  0  0  0  0
  -49.4104   60.8943   64.0502 C   0  0  0  0  0  0  0  0  0  0  0  0
  -50.7091   60.1807   64.1426 C   0  0  0  0  0  0  0  0  0  0  0  0
  -51.3829   59.8766   62.8202 C   0  0  0  0  0  0  0  0  0  0  0  0
  -50.4104   59.4402   61.7591 C   0  0  0  0  0  0  0  0  0  0  0  0
  -50.0354   57.9812   61.8107 C   0  0  0  0  0  0  0  0  0  0  0  0
  -50.7122   57.1681   60.7293 C   0  0  0  0  0  0  0  0  0  0  0  0
  -50.2493   57.4651   59.3303 C   0  0  0  0  0  0  0  0  0  0  0  0
  -48.8101   57.2072   59.1270 C   0  0  0  0  0  0  0  0  0  0  0  0
  -48.4236   55.8250   59.4031 C   0  0  0  0  0  0  0  0  0  0  0  0
  -39.8579   61.3894   64.9253 O   0  0  0  0  0  0  0  0  0  0  0  0
  -38.5357   60.9751   65.3355 C   0  0  0  0  0  0  0  0  0  0  0  0
  -37.5991   62.1236   65.0386 C   0  0  0  0  0  0  0  0  0  0  0  0
  -36.8341   62.4276   66.2050 O   0  0  0  0  0  0  0  0  0  0  0  0
  -36.2768   61.6672   66.4334 H   0  0  0  0  0  0  0  0  0  0  0  0
  -36.6457   61.8903   63.8918 C   0  0  0  0  0  0  0  0  0  0  0  0
  -35.3545   62.4201   64.2535 O   0  0  0  0  0  0  0  0  0  0  0  0
  -34.9495   63.8875   63.7930 P   0  0  0  0  0  0  0  0  0  0  0  0
  -35.6195   64.1359   62.5005 O   0  0  0  0  0  0  0  0  0  0  0  0
  -35.2277   64.7849   64.9316 O   0  0  0  0  0  0  0  0  0  0  0  0
  -36.1809   64.7931   65.1114 H   0  0  0  0  0  0  0  0  0  0  0  0
  -33.3825   63.9145   63.5465 O   0  0  0  0  0  0  0  0  0  0  0  0
  -32.6630   65.1664   63.6413 C   0  0  0  0  0  0  0  0  0  0  0  0
  -31.1966   64.7997   63.6716 C   0  0  0  0  0  0  0  0  0  0  0  0
  -30.4560   65.1084   64.9577 N   0  0  0  0  0  0  0  0  0  0  0  0
  -31.3209   64.8583   66.1511 C   0  0  0  0  0  0  0  0  0  0  0  0
  -30.0389   66.5442   64.9624 C   0  0  0  0  0  0  0  0  0  0  0  0
  -29.2408   64.2408   65.0570 C   0  0  0  0  0  0  0  0  0  0  0  0
 34 33  1  0  0  0
 34 35  1  0  0  0
 34 36  1  0  0  0
 34 37  1  0  0  0
 22 23  1  0  0  0
 22 25  1  0  0  0
 22 21  1  0  0  0
 27 26  1  0  0  0
 27 28  2  0  0  0
 27 31  1  0  0  0
 27 29  1  0  0  0
 25 26  1  0  0  0
 32 33  1  0  0  0
 32 31  1  0  0  0
 20 21  1  0  0  0
 20  2  1  0  0  0
  1  2  2  0  0  0
  2  3  1  0  0  0
  3  4  1  0  0  0
  4  5  1  0  0  0
  5  6  1  0  0  0
  6  7  1  0  0  0
  7  8  1  0  0  0
  8  9  1  0  0  0
  9 10  1  0  0  0
 10 11  2  0  0  0
 11 12  1  0  0  0
 12 13  1  0  0  0
 13 14  1  0  0  0
 14 15  1  0  0  0
 15 16  1  0  0  0
 16 17  1  0  0  0
 17 18  1  0  0  0
 18 19  1  0  0  0
 23 24  1  0  0  0
 29 30  1  0  0  0
M  CHG 1  28  -1
M  END
> <minimizedAffinity>
-7.79966

> <CNNscore>
0.7544460893

> <CNNaffinity>
6.1947164536

> <CNN_VS>
4.6735796928

> <CNNaffinity_variance>
0.7211018205

$$$$



 37 36  0  0  0  0  0  0  0  0999 V2000
  -41.7378   58.0113   65.5073 O   0  0  0  0  0  0  0  0  0  0  0  0
  -42.4932   58.9328   65.5638 C   0  0  0  0  0  0  0  0  0  0  0  0
  -43.9592   58.8107   65.8229 C   0  0  0  0  0  0  0  0  0  0  0  0
  -44.5690   57.5717   65.1948 C   0  0  0  0  0  0  0  0  0  0  0  0
  -45.7160   57.8888   64.2597 C   0  0  0  0  0  0  0  0  0  0  0  0
  -46.8644   58.6276   64.9055 C   0  0  0  0  0  0  0  0  0  0  0  0
  -47.9315   57.7242   65.4690 C   0  0  0  0  0  0  0  0  0  0  0  0
  -49.2926   58.0176   64.8975 C   0  0  0  0  0  0  0  0  0  0  0  0
  -49.6249   59.4719   64.7396 C   0  0  0  0  0  0  0  0  0  0  0  0
  -50.8395   59.7093   63.9462 C   0  0  0  0  0  0  0  0  0  0  0  0
  -50.9251   60.0186   62.6712 C   0  0  0  0  0  0  0  0  0  0  0  0
  -49.8185   60.1863   61.6955 C   0  0  0  0  0  0  0  0  0  0  0  0
  -49.6899   59.0889   60.6589 C   0  0  0  0  0  0  0  0  0  0  0  0
  -49.6461   57.7150   61.2692 C   0  0  0  0  0  0  0  0  0  0  0  0
  -49.5243   56.5883   60.2754 C   0  0  0  0  0  0  0  0  0  0  0  0
  -48.1322   56.4732   59.6945 C   0  0  0  0  0  0  0  0  0  0  0  0
  -48.0240   55.5965   58.4781 C   0  0  0  0  0  0  0  0  0  0  0  0
  -47.9032   56.3597   57.2203 C   0  0  0  0  0  0  0  0  0  0  0  0
  -46.7722   57.2854   57.2097 C   0  0  0  0  0  0  0  0  0  0  0  0
  -42.1274   60.2033   65.3937 O   0  0  0  0  0  0  0  0  0  0  0  0
  -40.9014   60.6352   66.0248 C   0  0  0  0  0  0  0  0  0  0  0  0
  -40.3488   61.7683   65.1910 C   0  0  0  0  0  0  0  0  0  0  0  0
  -39.1404   62.2479   65.7809 O   0  0  0  0  0  0  0  0  0  0  0  0
  -38.4732   61.5439   65.7691 H   0  0  0  0  0  0  0  0  0  0  0  0
  -40.0694   61.4226   63.7485 C   0  0  0  0  0  0  0  0  0  0  0  0
  -39.2194   60.2585   63.7119 O   0  0  0  0  0  0  0  0  0  0  0  0
  -37.7775   60.3581   63.0485 P   0  0  0  0  0  0  0  0  0  0  0  0
  -37.2074   58.9957   63.0453 O   0  0  0  0  0  0  0  0  0  0  0  0
  -37.9450   61.0708   61.7667 O   0  0  0  0  0  0  0  0  0  0  0  0
  -38.4987   60.5410   61.1721 H   0  0  0  0  0  0  0  0  0  0  0  0
  -36.8674   61.2686   63.9759 O   0  0  0  0  0  0  0  0  0  0  0  0
  -36.4179   62.5576   63.4963 C   0  0  0  0  0  0  0  0  0  0  0  0
  -35.0609   62.7824   64.1236 C   0  0  0  0  0  0  0  0  0  0  0  0
  -34.3665   64.0822   63.7684 N   0  0  0  0  0  0  0  0  0  0  0  0
  -32.9498   63.8413   63.3564 C   0  0  0  0  0  0  0  0  0  0  0  0
  -34.3709   64.9921   64.9548 C   0  0  0  0  0  0  0  0  0  0  0  0
  -35.0883   64.7432   62.6364 C   0  0  0  0  0  0  0  0  0  0  0  0
 34 33  1  0  0  0
 34 35  1  0  0  0
 34 36  1  0  0  0
 34 37  1  0  0  0
 22 23  1  0  0  0
 22 25  1  0  0  0
 22 21  1  0  0  0
 27 26  1  0  0  0
 27 28  2  0  0  0
 27 31  1  0  0  0
 27 29  1  0  0  0
 25 26  1  0  0  0
 32 33  1  0  0  0
 32 31  1  0  0  0
 20 21  1  0  0  0
 20  2  1  0  0  0
  1  2  2  0  0  0
  2  3  1  0  0  0
  3  4  1  0  0  0
  4  5  1  0  0  0
  5  6  1  0  0  0
  6  7  1  0  0  0
  7  8  1  0  0  0
  8  9  1  0  0  0
  9 10  1  0  0  0
 10 11  2  0  0  0
 11 12  1  0  0  0
 12 13  1  0  0  0
 13 14  1  0  0  0
 14 15  1  0  0  0
 15 16  1  0  0  0
 16 17  1  0  0  0
 17 18  1  0  0  0
 18 19  1  0  0  0
 23 24  1  0  0  0
 29 30  1  0  0  0
M  CHG 1  28  -1
M  END
> <minimizedAffinity>
-7.79522

> <CNNscore>
0.7544101477

> <CNNaffinity>
6.5614776611

> <CNN_VS>
4.9500451088

> <CNNaffinity_variance>
0.4693017900

$$$$



 37 36  0  0  0  0  0  0  0  0999 V2000
  -42.4101   57.5472   66.2074 O   0  0  0  0  0  0  0  0  0  0  0  0
  -42.4996   58.4682   65.4547 C   0  0  0  0  0  0  0  0  0  0  0  0
  -43.7683   58.9042   64.7979 C   0  0  0  0  0  0  0  0  0  0  0  0
  -44.7433   57.7626   64.5797 C   0  0  0  0  0  0  0  0  0  0  0  0
  -45.8702   57.7490   65.5897 C   0  0  0  0  0  0  0  0  0  0  0  0
  -46.4219   59.1132   65.9307 C   0  0  0  0  0  0  0  0  0  0  0  0
  -47.6477   59.4913   65.1390 C   0  0  0  0  0  0  0  0  0  0  0  0
  -48.4307   58.2889   64.6843 C   0  0  0  0  0  0  0  0  0  0  0  0
  -49.8761   58.2725   65.0852 C   0  0  0  0  0  0  0  0  0  0  0  0
  -50.4670   59.6144   65.1905 C   0  0  0  0  0  0  0  0  0  0  0  0
  -51.1054   60.2921   64.2621 C   0  0  0  0  0  0  0  0  0  0  0  0
  -51.4154   59.8695   62.8730 C   0  0  0  0  0  0  0  0  0  0  0  0
  -50.3114   60.0942   61.8601 C   0  0  0  0  0  0  0  0  0  0  0  0
  -49.6695   58.8121   61.4059 C   0  0  0  0  0  0  0  0  0  0  0  0
  -50.6389   57.7132   61.0533 C   0  0  0  0  0  0  0  0  0  0  0  0
  -50.0187   56.6508   60.1728 C   0  0  0  0  0  0  0  0  0  0  0  0
  -49.5138   57.1439   58.8455 C   0  0  0  0  0  0  0  0  0  0  0  0
  -48.0734   56.8931   58.6417 C   0  0  0  0  0  0  0  0  0  0  0  0
  -47.6604   55.5429   59.0194 C   0  0  0  0  0  0  0  0  0  0  0  0
  -41.4692   59.2315   65.0907 O   0  0  0  0  0  0  0  0  0  0  0  0
  -40.9968   60.2127   66.0405 C   0  0  0  0  0  0  0  0  0  0  0  0
  -40.0318   61.1135   65.3045 C   0  0  0  0  0  0  0  0  0  0  0  0
  -39.9981   62.3929   65.9372 O   0  0  0  0  0  0  0  0  0  0  0  0
  -39.6557   62.2983   66.8398 H   0  0  0  0  0  0  0  0  0  0  0  0
  -38.6182   60.5928   65.2087 C   0  0  0  0  0  0  0  0  0  0  0  0
  -37.8707   61.0839   66.3396 O   0  0  0  0  0  0  0  0  0  0  0  0
  -36.4046   61.6607   66.1227 P   0  0  0  0  0  0  0  0  0  0  0  0
  -36.5187   62.7880   65.1754 O   0  0  0  0  0  0  0  0  0  0  0  0
  -35.8377   61.9028   67.4640 O   0  0  0  0  0  0  0  0  0  0  0  0
  -36.3533   62.5905   67.9136 H   0  0  0  0  0  0  0  0  0  0  0  0
  -35.5245   60.5320   65.4383 O   0  0  0  0  0  0  0  0  0  0  0  0
  -34.0815   60.6373   65.4575 C   0  0  0  0  0  0  0  0  0  0  0  0
  -33.6311   60.4139   64.0317 C   0  0  0  0  0  0  0  0  0  0  0  0
  -33.1461   59.0180   63.6940 N   0  0  0  0  0  0  0  0  0  0  0  0
  -34.2064   58.2349   62.9888 C   0  0  0  0  0  0  0  0  0  0  0  0
  -32.7776   58.2986   64.9518 C   0  0  0  0  0  0  0  0  0  0  0  0
  -31.9452   59.1058   62.8054 C   0  0  0  0  0  0  0  0  0  0  0  0
 34 33  1  0  0  0
 34 35  1  0  0  0
 34 36  1  0  0  0
 34 37  1  0  0  0
 22 23  1  0  0  0
 22 25  1  0  0  0
 22 21  1  0  0  0
 27 26  1  0  0  0
 27 28  2  0  0  0
 27 31  1  0  0  0
 27 29  1  0  0  0
 25 26  1  0  0  0
 32 33  1  0  0  0
 32 31  1  0  0  0
 20 21  1  0  0  0
 20  2  1  0  0  0
  1  2  2  0  0  0
  2  3  1  0  0  0
  3  4  1  0  0  0
  4  5  1  0  0  0
  5  6  1  0  0  0
  6  7  1  0  0  0
  7  8  1  0  0  0
  8  9  1  0  0  0
  9 10  1  0  0  0
 10 11  2  0  0  0
 11 12  1  0  0  0
 12 13  1  0  0  0
 13 14  1  0  0  0
 14 15  1  0  0  0
 15 16  1  0  0  0
 16 17  1  0  0  0
 17 18  1  0  0  0
 18 19  1  0  0  0
 23 24  1  0  0  0
 29 30  1  0  0  0
M  CHG 1  28  -1
M  END
> <minimizedAffinity>
-8.30256

> <CNNscore>
0.7344742417

> <CNNaffinity>
6.5288476944

> <CNN_VS>
4.7952704430

> <CNNaffinity_variance>
0.2016434371

$$$$



 37 36  0  0  0  0  0  0  0  0999 V2000
  -41.9137   61.1730   63.4985 O   0  0  0  0  0  0  0  0  0  0  0  0
  -41.2798   60.5302   64.2783 C   0  0  0  0  0  0  0  0  0  0  0  0
  -41.6159   60.3851   65.7265 C   0  0  0  0  0  0  0  0  0  0  0  0
  -42.0695   58.9838   66.0902 C   0  0  0  0  0  0  0  0  0  0  0  0
  -43.3311   58.5663   65.3661 C   0  0  0  0  0  0  0  0  0  0  0  0
  -43.8052   57.1689   65.6891 C   0  0  0  0  0  0  0  0  0  0  0  0
  -45.2415   56.9094   65.3123 C   0  0  0  0  0  0  0  0  0  0  0  0
  -45.9277   58.1403   64.7837 C   0  0  0  0  0  0  0  0  0  0  0  0
  -47.2617   58.4475   65.3973 C   0  0  0  0  0  0  0  0  0  0  0  0
  -48.3655   57.6749   64.8093 C   0  0  0  0  0  0  0  0  0  0  0  0
  -49.1469   58.0146   63.8080 C   0  0  0  0  0  0  0  0  0  0  0  0
  -49.1035   59.2568   62.9959 C   0  0  0  0  0  0  0  0  0  0  0  0
  -49.9205   59.2321   61.7203 C   0  0  0  0  0  0  0  0  0  0  0  0
  -50.7245   57.9700   61.5693 C   0  0  0  0  0  0  0  0  0  0  0  0
  -50.6406   57.3294   60.2075 C   0  0  0  0  0  0  0  0  0  0  0  0
  -49.6113   56.2223   60.1481 C   0  0  0  0  0  0  0  0  0  0  0  0
  -48.2464   56.6506   59.6860 C   0  0  0  0  0  0  0  0  0  0  0  0
  -48.2371   57.1717   58.3048 C   0  0  0  0  0  0  0  0  0  0  0  0
  -47.4853   56.3330   57.3734 C   0  0  0  0  0  0  0  0  0  0  0  0
  -40.1741   59.8575   63.9596 O   0  0  0  0  0  0  0  0  0  0  0  0
  -38.9567   60.6168   63.7881 C   0  0  0  0  0  0  0  0  0  0  0  0
  -38.2952   60.7065   65.1441 C   0  0  0  0  0  0  0  0  0  0  0  0
  -37.5290   59.5250   65.3790 O   0  0  0  0  0  0  0  0  0  0  0  0
  -36.8148   59.4675   64.7252 H   0  0  0  0  0  0  0  0  0  0  0  0
  -37.3958   61.9031   65.3382 C   0  0  0  0  0  0  0  0  0  0  0  0
  -36.1812   61.4650   65.9797 O   0  0  0  0  0  0  0  0  0  0  0  0
  -34.9473   62.4621   66.0920 P   0  0  0  0  0  0  0  0  0  0  0  0
  -35.4347   63.7998   65.6995 O   0  0  0  0  0  0  0  0  0  0  0  0
  -34.3666   62.2739   67.4360 O   0  0  0  0  0  0  0  0  0  0  0  0
  -35.0134   62.5405   68.1079 H   0  0  0  0  0  0  0  0  0  0  0  0
  -33.8491   62.0117   65.0393 O   0  0  0  0  0  0  0  0  0  0  0  0
  -34.0117   60.7657   64.3219 C   0  0  0  0  0  0  0  0  0  0  0  0
  -32.7382   60.5748   63.5298 C   0  0  0  0  0  0  0  0  0  0  0  0
  -32.3009   59.1416   63.3008 N   0  0  0  0  0  0  0  0  0  0  0  0
  -33.1539   58.4761   62.2692 C   0  0  0  0  0  0  0  0  0  0  0  0
  -32.4115   58.3746   64.5794 C   0  0  0  0  0  0  0  0  0  0  0  0
  -30.8795   59.1198   62.8332 C   0  0  0  0  0  0  0  0  0  0  0  0
 34 33  1  0  0  0
 34 35  1  0  0  0
 34 36  1  0  0  0
 34 37  1  0  0  0
 22 23  1  0  0  0
 22 25  1  0  0  0
 22 21  1  0  0  0
 27 26  1  0  0  0
 27 28  2  0  0  0
 27 31  1  0  0  0
 27 29  1  0  0  0
 25 26  1  0  0  0
 32 33  1  0  0  0
 32 31  1  0  0  0
 20 21  1  0  0  0
 20  2  1  0  0  0
  1  2  2  0  0  0
  2  3  1  0  0  0
  3  4  1  0  0  0
  4  5  1  0  0  0
  5  6  1  0  0  0
  6  7  1  0  0  0
  7  8  1  0  0  0
  8  9  1  0  0  0
  9 10  1  0  0  0
 10 11  2  0  0  0
 11 12  1  0  0  0
 12 13  1  0  0  0
 13 14  1  0  0  0
 14 15  1  0  0  0
 15 16  1  0  0  0
 16 17  1  0  0  0
 17 18  1  0  0  0
 18 19  1  0  0  0
 23 24  1  0  0  0
 29 30  1  0  0  0
M  CHG 1  28  -1
M  END
> <minimizedAffinity>
-7.44408

> <CNNscore>
0.6762520075

> <CNNaffinity>
6.3395962715

> <CNN_VS>
4.2871646881

> <CNNaffinity_variance>
0.3625764251

$$$$



 37 36  0  0  0  0  0  0  0  0999 V2000
  -41.9346   58.1297   66.3456 O   0  0  0  0  0  0  0  0  0  0  0  0
  -42.1346   59.2724   66.0678 C   0  0  0  0  0  0  0  0  0  0  0  0
  -43.4182   59.7960   65.5116 C   0  0  0  0  0  0  0  0  0  0  0  0
  -44.3611   58.6948   65.0645 C   0  0  0  0  0  0  0  0  0  0  0  0
  -45.6296   58.6350   65.8878 C   0  0  0  0  0  0  0  0  0  0  0  0
  -46.6417   59.7066   65.5574 C   0  0  0  0  0  0  0  0  0  0  0  0
  -47.6965   59.2675   64.5741 C   0  0  0  0  0  0  0  0  0  0  0  0
  -48.3951   58.0065   65.0066 C   0  0  0  0  0  0  0  0  0  0  0  0
  -49.8908   58.0924   65.0822 C   0  0  0  0  0  0  0  0  0  0  0  0
  -50.3870   59.4633   65.2703 C   0  0  0  0  0  0  0  0  0  0  0  0
  -50.9991   60.2292   64.3942 C   0  0  0  0  0  0  0  0  0  0  0  0
  -51.3686   59.9009   62.9942 C   0  0  0  0  0  0  0  0  0  0  0  0
  -50.3057   60.1886   61.9536 C   0  0  0  0  0  0  0  0  0  0  0  0
  -49.6675   58.9384   61.4135 C   0  0  0  0  0  0  0  0  0  0  0  0
  -50.5657   57.7280   61.4007 C   0  0  0  0  0  0  0  0  0  0  0  0
  -50.2215   56.7601   60.2902 C   0  0  0  0  0  0  0  0  0  0  0  0
  -49.4093   57.3455   59.1688 C   0  0  0  0  0  0  0  0  0  0  0  0
  -48.2336   56.5266   58.8135 C   0  0  0  0  0  0  0  0  0  0  0  0
  -47.4108   57.1188   57.7606 C   0  0  0  0  0  0  0  0  0  0  0  0
  -41.2289   60.2399   66.2105 O   0  0  0  0  0  0  0  0  0  0  0  0
  -39.9337   60.0369   65.6029 C   0  0  0  0  0  0  0  0  0  0  0  0
  -39.5187   61.3557   64.9921 C   0  0  0  0  0  0  0  0  0  0  0  0
  -39.8329   62.4174   65.8934 O   0  0  0  0  0  0  0  0  0  0  0  0
  -39.3159   62.3139   66.7076 H   0  0  0  0  0  0  0  0  0  0  0  0
  -38.0579   61.4588   64.6264 C   0  0  0  0  0  0  0  0  0  0  0  0
  -37.4156   62.3589   65.5516 O   0  0  0  0  0  0  0  0  0  0  0  0
  -35.9571   62.0242   66.0903 P   0  0  0  0  0  0  0  0  0  0  0  0
  -35.9957   62.1646   67.5600 O   0  0  0  0  0  0  0  0  0  0  0  0
  -35.5713   60.7268   65.5014 O   0  0  0  0  0  0  0  0  0  0  0  0
  -36.1648   60.0334   65.8298 H   0  0  0  0  0  0  0  0  0  0  0  0
  -34.9560   63.1146   65.5195 O   0  0  0  0  0  0  0  0  0  0  0  0
  -34.3552   62.9247   64.2169 C   0  0  0  0  0  0  0  0  0  0  0  0
  -32.9120   63.3513   64.3604 C   0  0  0  0  0  0  0  0  0  0  0  0
  -32.5266   64.6488   63.6780 N   0  0  0  0  0  0  0  0  0  0  0  0
  -32.3677   65.7540   64.6720 C   0  0  0  0  0  0  0  0  0  0  0  0
  -33.5898   65.0347   62.7003 C   0  0  0  0  0  0  0  0  0  0  0  0
  -31.2304   64.4678   62.9524 C   0  0  0  0  0  0  0  0  0  0  0  0
 34 33  1  0  0  0
 34 35  1  0  0  0
 34 36  1  0  0  0
 34 37  1  0  0  0
 22 23  1  0  0  0
 22 25  1  0  0  0
 22 21  1  0  0  0
 27 26  1  0  0  0
 27 28  2  0  0  0
 27 31  1  0  0  0
 27 29  1  0  0  0
 25 26  1  0  0  0
 32 33  1  0  0  0
 32 31  1  0  0  0
 20 21  1  0  0  0
 20  2  1  0  0  0
  1  2  2  0  0  0
  2  3  1  0  0  0
  3  4  1  0  0  0
  4  5  1  0  0  0
  5  6  1  0  0  0
  6  7  1  0  0  0
  7  8  1  0  0  0
  8  9  1  0  0  0
  9 10  1  0  0  0
 10 11  2  0  0  0
 11 12  1  0  0  0
 12 13  1  0  0  0
 13 14  1  0  0  0
 14 15  1  0  0  0
 15 16  1  0  0  0
 16 17  1  0  0  0
 17 18  1  0  0  0
 18 19  1  0  0  0
 23 24  1  0  0  0
 29 30  1  0  0  0
M  CHG 1  28  -1
M  END
> <minimizedAffinity>
-8.20879

> <CNNscore>
0.6686847210

> <CNNaffinity>
6.1817922592

> <CNN_VS>
4.1336698532

> <CNNaffinity_variance>
0.1992161572

$$$$
