


 17 16  0  0  0  0  0  0  0  0999 V2000
  -50.7249   58.8714   62.6127 C   0  0  0  0  0  0  0  0  0  0  0  0
  -51.6221   60.0387   62.9118 C   0  0  0  0  0  0  0  0  0  0  0  0
  -49.9028   58.4145   63.5677 C   0  0  0  0  0  0  0  0  0  0  0  0
  -50.7457   58.2078   61.2519 C   0  0  0  0  0  0  0  0  0  0  0  0
  -49.6902   58.8196   60.3365 C   0  0  0  0  0  0  0  0  0  0  0  0
  -47.5174   59.2757   58.5254 C   0  0  0  0  0  0  0  0  0  0  0  0
  -48.5503   58.2360   58.2143 C   0  0  0  0  0  0  0  0  0  0  0  0
  -48.4419   57.4383   56.9497 C   0  0  0  0  0  0  0  0  0  0  0  0
  -49.5700   58.0212   59.0589 C   0  0  0  0  0  0  0  0  0  0  0  0
  -49.8816   59.0690   64.9299 C   0  0  0  0  0  0  0  0  0  0  0  0
  -49.7359   58.0125   66.0184 C   0  0  0  0  0  0  0  0  0  0  0  0
  -48.2720   57.7818   66.3251 C   0  0  0  0  0  0  0  0  0  0  0  0
  -47.6624   56.4388   66.0681 C   0  0  0  0  0  0  0  0  0  0  0  0
  -47.5153   58.7748   66.8153 C   0  0  0  0  0  0  0  0  0  0  0  0
  -45.2509   59.4929   66.3819 O   0  0  0  0  0  0  0  0  0  0  0  0
  -46.0503   58.5647   67.1233 C   0  0  0  0  0  0  0  0  0  0  0  0
  -44.3139   59.3488   66.5873 H   0  0  0  0  0  0  0  0  0  0  0  0
  6  7  1  0  0  0
 15 16  1  0  0  0
  7  8  1  0  0  0
  7  9  2  0  0  0
  9  5  1  0  0  0
  5  4  1  0  0  0
  4  1  1  0  0  0
  1  2  1  0  0  0
  1  3  2  0  0  0
  3 10  1  0  0  0
 10 11  1  0  0  0
 11 12  1  0  0  0
 12 13  1  0  0  0
 12 14  2  0  0  0
 14 16  1  0  0  0
 15 17  1  0  0  0
M  END
> <minimizedAffinity>
-7.40220

> <CNNscore>
0.8791146874

> <CNNaffinity>
6.3055114746

> <CNN_VS>
5.5432677269

> <CNNaffinity_variance>
0.4100323617

$$$$



 17 16  0  0  0  0  0  0  0  0999 V2000
  -50.7160   59.3459   62.8384 C   0  0  0  0  0  0  0  0  0  0  0  0
  -51.8834   60.2272   63.1811 C   0  0  0  0  0  0  0  0  0  0  0  0
  -50.0026   58.7884   63.8269 C   0  0  0  0  0  0  0  0  0  0  0  0
  -50.3446   59.0795   61.3949 C   0  0  0  0  0  0  0  0  0  0  0  0
  -50.8788   57.7250   60.9409 C   0  0  0  0  0  0  0  0  0  0  0  0
  -49.6273   57.6456   58.3648 C   0  0  0  0  0  0  0  0  0  0  0  0
  -49.1542   56.7383   59.4591 C   0  0  0  0  0  0  0  0  0  0  0  0
  -48.0250   55.7876   59.1977 C   0  0  0  0  0  0  0  0  0  0  0  0
  -49.7391   56.7713   60.6657 C   0  0  0  0  0  0  0  0  0  0  0  0
  -50.3719   59.0458   65.2697 C   0  0  0  0  0  0  0  0  0  0  0  0
  -49.8864   57.8998   66.1490 C   0  0  0  0  0  0  0  0  0  0  0  0
  -48.3807   57.9560   66.2903 C   0  0  0  0  0  0  0  0  0  0  0  0
  -47.7157   59.2511   66.6393 C   0  0  0  0  0  0  0  0  0  0  0  0
  -47.6397   56.8518   66.1154 C   0  0  0  0  0  0  0  0  0  0  0  0
  -45.7617   56.6765   67.6233 O   0  0  0  0  0  0  0  0  0  0  0  0
  -46.1351   56.8874   66.2571 C   0  0  0  0  0  0  0  0  0  0  0  0
  -44.7952   56.7014   67.7018 H   0  0  0  0  0  0  0  0  0  0  0  0
  6  7  1  0  0  0
 15 16  1  0  0  0
  7  8  1  0  0  0
  7  9  2  0  0  0
  9  5  1  0  0  0
  5  4  1  0  0  0
  4  1  1  0  0  0
  1  2  1  0  0  0
  1  3  2  0  0  0
  3 10  1  0  0  0
 10 11  1  0  0  0
 11 12  1  0  0  0
 12 13  1  0  0  0
 12 14  2  0  0  0
 14 16  1  0  0  0
 15 17  1  0  0  0
M  END
> <minimizedAffinity>
-7.71773

> <CNNscore>
0.8316199183

> <CNNaffinity>
6.3411831856

> <CNN_VS>
5.2734541893

> <CNNaffinity_variance>
0.4172727466

$$$$



 17 16  0  0  0  0  0  0  0  0999 V2000
  -47.8507   60.2042   59.5222 C   0  0  0  0  0  0  0  0  0  0  0  0
  -47.1942   61.1888   60.4477 C   0  0  0  0  0  0  0  0  0  0  0  0
  -49.0797   59.7529   59.8094 C   0  0  0  0  0  0  0  0  0  0  0  0
  -47.1420   59.7249   58.2729 C   0  0  0  0  0  0  0  0  0  0  0  0
  -46.2625   58.5175   58.5804 C   0  0  0  0  0  0  0  0  0  0  0  0
  -47.7606   56.1740   59.2684 C   0  0  0  0  0  0  0  0  0  0  0  0
  -47.1956   56.3276   57.8894 C   0  0  0  0  0  0  0  0  0  0  0  0
  -47.4162   55.2477   56.8733 C   0  0  0  0  0  0  0  0  0  0  0  0
  -46.4920   57.4224   57.5644 C   0  0  0  0  0  0  0  0  0  0  0  0
  -49.7946   60.2319   61.0519 C   0  0  0  0  0  0  0  0  0  0  0  0
  -50.1676   59.0464   61.9337 C   0  0  0  0  0  0  0  0  0  0  0  0
  -50.6851   59.5354   63.2691 C   0  0  0  0  0  0  0  0  0  0  0  0
  -51.9705   60.3004   63.3322 C   0  0  0  0  0  0  0  0  0  0  0  0
  -50.0057   59.2790   64.3968 C   0  0  0  0  0  0  0  0  0  0  0  0
  -49.5044   59.5618   66.7420 O   0  0  0  0  0  0  0  0  0  0  0  0
  -50.5092   59.7552   65.7403 C   0  0  0  0  0  0  0  0  0  0  0  0
  -49.8384   59.8705   67.5988 H   0  0  0  0  0  0  0  0  0  0  0  0
  6  7  1  0  0  0
 15 16  1  0  0  0
  7  8  1  0  0  0
  7  9  2  0  0  0
  9  5  1  0  0  0
  5  4  1  0  0  0
  4  1  1  0  0  0
  1  2  1  0  0  0
  1  3  2  0  0  0
  3 10  1  0  0  0
 10 11  1  0  0  0
 11 12  1  0  0  0
 12 13  1  0  0  0
 12 14  2  0  0  0
 14 16  1  0  0  0
 15 17  1  0  0  0
M  END
> <minimizedAffinity>
-8.01911

> <CNNscore>
0.8076292872

> <CNNaffinity>
5.9943065643

> <CNN_VS>
4.8411774635

> <CNNaffinity_variance>
0.0603917539

$$$$



 17 16  0  0  0  0  0  0  0  0999 V2000
  -50.0136   58.7402   61.6613 C   0  0  0  0  0  0  0  0  0  0  0  0
  -50.5085   57.8974   60.5204 C   0  0  0  0  0  0  0  0  0  0  0  0
  -49.3031   59.8463   61.3995 C   0  0  0  0  0  0  0  0  0  0  0  0
  -50.3138   58.3560   63.0948 C   0  0  0  0  0  0  0  0  0  0  0  0
  -49.4053   59.1126   64.0582 C   0  0  0  0  0  0  0  0  0  0  0  0
  -48.0206   60.0071   66.4017 C   0  0  0  0  0  0  0  0  0  0  0  0
  -47.9507   58.5683   65.9899 C   0  0  0  0  0  0  0  0  0  0  0  0
  -47.1505   57.6008   66.8090 C   0  0  0  0  0  0  0  0  0  0  0  0
  -48.5959   58.1464   64.8923 C   0  0  0  0  0  0  0  0  0  0  0  0
  -49.0051   60.2383   59.9706 C   0  0  0  0  0  0  0  0  0  0  0  0
  -47.5160   60.5144   59.8009 C   0  0  0  0  0  0  0  0  0  0  0  0
  -46.8306   59.3092   59.1943 C   0  0  0  0  0  0  0  0  0  0  0  0
  -45.9881   58.4219   60.0571 C   0  0  0  0  0  0  0  0  0  0  0  0
  -46.9814   59.0250   57.8923 C   0  0  0  0  0  0  0  0  0  0  0  0
  -47.2799   56.9895   56.6278 O   0  0  0  0  0  0  0  0  0  0  0  0
  -46.3085   57.8230   57.2696 C   0  0  0  0  0  0  0  0  0  0  0  0
  -46.8371   56.2224   56.2323 H   0  0  0  0  0  0  0  0  0  0  0  0
  6  7  1  0  0  0
 15 16  1  0  0  0
  7  8  1  0  0  0
  7  9  2  0  0  0
  9  5  1  0  0  0
  5  4  1  0  0  0
  4  1  1  0  0  0
  1  2  1  0  0  0
  1  3  2  0  0  0
  3 10  1  0  0  0
 10 11  1  0  0  0
 11 12  1  0  0  0
 12 13  1  0  0  0
 12 14  2  0  0  0
 14 16  1  0  0  0
 15 17  1  0  0  0
M  END
> <minimizedAffinity>
-6.67576

> <CNNscore>
0.7232946157

> <CNNaffinity>
6.1196374893

> <CNN_VS>
4.4263010025

> <CNNaffinity_variance>
0.2466957569

$$$$



 17 16  0  0  0  0  0  0  0  0999 V2000
  -50.4534   59.7045   62.7348 C   0  0  0  0  0  0  0  0  0  0  0  0
  -51.7983   60.2207   63.1609 C   0  0  0  0  0  0  0  0  0  0  0  0
  -49.7567   58.9212   63.5702 C   0  0  0  0  0  0  0  0  0  0  0  0
  -49.8847   60.0549   61.3759 C   0  0  0  0  0  0  0  0  0  0  0  0
  -49.5583   58.7922   60.5852 C   0  0  0  0  0  0  0  0  0  0  0  0
  -46.8351   58.0589   60.0794 C   0  0  0  0  0  0  0  0  0  0  0  0
  -47.6205   58.7984   59.0397 C   0  0  0  0  0  0  0  0  0  0  0  0
  -46.9729   59.1544   57.7354 C   0  0  0  0  0  0  0  0  0  0  0  0
  -48.8949   59.1451   59.2738 C   0  0  0  0  0  0  0  0  0  0  0  0
  -50.3215   58.5631   64.9256 C   0  0  0  0  0  0  0  0  0  0  0  0
  -49.6744   59.4193   66.0074 C   0  0  0  0  0  0  0  0  0  0  0  0
  -48.2647   58.9387   66.2757 C   0  0  0  0  0  0  0  0  0  0  0  0
  -47.1472   59.9307   66.3687 C   0  0  0  0  0  0  0  0  0  0  0  0
  -48.0118   57.6319   66.4410 C   0  0  0  0  0  0  0  0  0  0  0  0
  -46.3613   55.9311   65.9779 O   0  0  0  0  0  0  0  0  0  0  0  0
  -46.6110   57.1335   66.7144 C   0  0  0  0  0  0  0  0  0  0  0  0
  -45.4606   55.6210   66.1610 H   0  0  0  0  0  0  0  0  0  0  0  0
  6  7  1  0  0  0
 15 16  1  0  0  0
  7  8  1  0  0  0
  7  9  2  0  0  0
  9  5  1  0  0  0
  5  4  1  0  0  0
  4  1  1  0  0  0
  1  2  1  0  0  0
  1  3  2  0  0  0
  3 10  1  0  0  0
 10 11  1  0  0  0
 11 12  1  0  0  0
 12 13  1  0  0  0
 12 14  2  0  0  0
 14 16  1  0  0  0
 15 17  1  0  0  0
M  END
> <minimizedAffinity>
-7.11495

> <CNNscore>
0.6815220118

> <CNNaffinity>
6.0014710426

> <CNN_VS>
4.0901346207

> <CNNaffinity_variance>
0.3667313457

$$$$



 17 16  0  0  0  0  0  0  0  0999 V2000
  -46.5344   58.6433   58.9605 C   0  0  0  0  0  0  0  0  0  0  0  0
  -45.6800   57.4093   59.0241 C   0  0  0  0  0  0  0  0  0  0  0  0
  -46.4769   59.5332   59.9612 C   0  0  0  0  0  0  0  0  0  0  0  0
  -47.4499   58.8910   57.7801 C   0  0  0  0  0  0  0  0  0  0  0  0
  -48.5384   57.8251   57.7079 C   0  0  0  0  0  0  0  0  0  0  0  0
  -49.0654   55.9984   59.8514 C   0  0  0  0  0  0  0  0  0  0  0  0
  -49.8703   57.2550   59.7190 C   0  0  0  0  0  0  0  0  0  0  0  0
  -50.9540   57.5494   60.7121 C   0  0  0  0  0  0  0  0  0  0  0  0
  -49.6278   58.1114   58.7156 C   0  0  0  0  0  0  0  0  0  0  0  0
  -45.5608   59.2945   61.1394 C   0  0  0  0  0  0  0  0  0  0  0  0
  -45.5332   60.5227   62.0411 C   0  0  0  0  0  0  0  0  0  0  0  0
  -44.1211   61.0561   62.1485 C   0  0  0  0  0  0  0  0  0  0  0  0
  -43.8551   62.5083   61.8999 C   0  0  0  0  0  0  0  0  0  0  0  0
  -43.1087   60.2392   62.4751 C   0  0  0  0  0  0  0  0  0  0  0  0
  -41.3777   61.0304   63.9612 O   0  0  0  0  0  0  0  0  0  0  0  0
  -41.6924   60.7546   62.5918 C   0  0  0  0  0  0  0  0  0  0  0  0
  -40.4676   61.3601   64.0237 H   0  0  0  0  0  0  0  0  0  0  0  0
  6  7  1  0  0  0
 15 16  1  0  0  0
  7  8  1  0  0  0
  7  9  2  0  0  0
  9  5  1  0  0  0
  5  4  1  0  0  0
  4  1  1  0  0  0
  1  2  1  0  0  0
  1  3  2  0  0  0
  3 10  1  0  0  0
 10 11  1  0  0  0
 11 12  1  0  0  0
 12 13  1  0  0  0
 12 14  2  0  0  0
 14 16  1  0  0  0
 15 17  1  0  0  0
M  END
> <minimizedAffinity>
-7.15482

> <CNNscore>
0.6567126513

> <CNNaffinity>
5.7006807327

> <CNN_VS>
3.7437090874

> <CNNaffinity_variance>
0.0502550118

$$$$



 17 16  0  0  0  0  0  0  0  0999 V2000
  -50.0329   59.1179   61.1573 C   0  0  0  0  0  0  0  0  0  0  0  0
  -49.4318   60.4633   60.8646 C   0  0  0  0  0  0  0  0  0  0  0  0
  -50.7981   58.9645   62.2470 C   0  0  0  0  0  0  0  0  0  0  0  0
  -49.7875   57.9431   60.2342 C   0  0  0  0  0  0  0  0  0  0  0  0
  -49.6209   58.4142   58.7931 C   0  0  0  0  0  0  0  0  0  0  0  0
  -47.1482   59.7173   58.1632 C   0  0  0  0  0  0  0  0  0  0  0  0
  -47.3443   58.2714   57.8234 C   0  0  0  0  0  0  0  0  0  0  0  0
  -46.2412   57.5118   57.1499 C   0  0  0  0  0  0  0  0  0  0  0  0
  -48.5014   57.6586   58.1149 C   0  0  0  0  0  0  0  0  0  0  0  0
  -51.0516   60.1348   63.1692 C   0  0  0  0  0  0  0  0  0  0  0  0
  -50.9535   59.6892   64.6231 C   0  0  0  0  0  0  0  0  0  0  0  0
  -49.5027   59.5069   65.0133 C   0  0  0  0  0  0  0  0  0  0  0  0
  -48.4665   60.4458   64.4781 C   0  0  0  0  0  0  0  0  0  0  0  0
  -49.1409   58.5172   65.8430 C   0  0  0  0  0  0  0  0  0  0  0  0
  -47.4261   59.0245   67.4658 O   0  0  0  0  0  0  0  0  0  0  0  0
  -47.6975   58.3223   66.2477 C   0  0  0  0  0  0  0  0  0  0  0  0
  -46.4981   58.8923   67.7153 H   0  0  0  0  0  0  0  0  0  0  0  0
  6  7  1  0  0  0
 15 16  1  0  0  0
  7  8  1  0  0  0
  7  9  2  0  0  0
  9  5  1  0  0  0
  5  4  1  0  0  0
  4  1  1  0  0  0
  1  2  1  0  0  0
  1  3  2  0  0  0
  3 10  1  0  0  0
 10 11  1  0  0  0
 11 12  1  0  0  0
 12 13  1  0  0  0
 12 14  2  0  0  0
 14 16  1  0  0  0
 15 17  1  0  0  0
M  END
> <minimizedAffinity>
-7.51382

> <CNNscore>
0.6097633839

> <CNNaffinity>
5.8683037758

> <CNN_VS>
3.5782768726

> <CNNaffinity_variance>
0.1730561703

$$$$



 17 16  0  0  0  0  0  0  0  0999 V2000
  -50.5420   59.4725   62.1651 C   0  0  0  0  0  0  0  0  0  0  0  0
  -49.2111   60.1203   61.9083 C   0  0  0  0  0  0  0  0  0  0  0  0
  -50.8398   58.3194   61.5499 C   0  0  0  0  0  0  0  0  0  0  0  0
  -51.5409   60.1045   63.1114 C   0  0  0  0  0  0  0  0  0  0  0  0
  -50.9745   60.1759   64.5257 C   0  0  0  0  0  0  0  0  0  0  0  0
  -48.6765   60.0778   66.2343 C   0  0  0  0  0  0  0  0  0  0  0  0
  -49.2857   58.8096   65.7194 C   0  0  0  0  0  0  0  0  0  0  0  0
  -48.6847   57.4903   66.1010 C   0  0  0  0  0  0  0  0  0  0  0  0
  -50.3602   58.8518   64.9177 C   0  0  0  0  0  0  0  0  0  0  0  0
  -49.8446   57.6806   60.6087 C   0  0  0  0  0  0  0  0  0  0  0  0
  -50.2485   57.9392   59.1622 C   0  0  0  0  0  0  0  0  0  0  0  0
  -49.0187   57.9938   58.2820 C   0  0  0  0  0  0  0  0  0  0  0  0
  -48.9081   57.0773   57.1033 C   0  0  0  0  0  0  0  0  0  0  0  0
  -48.0328   58.8645   58.5443 C   0  0  0  0  0  0  0  0  0  0  0  0
  -45.8036   58.0241   58.1494 O   0  0  0  0  0  0  0  0  0  0  0  0
  -46.7991   58.9369   57.6737 C   0  0  0  0  0  0  0  0  0  0  0  0
  -45.0176   58.0794   57.5837 H   0  0  0  0  0  0  0  0  0  0  0  0
  6  7  1  0  0  0
 15 16  1  0  0  0
  7  8  1  0  0  0
  7  9  2  0  0  0
  9  5  1  0  0  0
  5  4  1  0  0  0
  4  1  1  0  0  0
  1  2  1  0  0  0
  1  3  2  0  0  0
  3 10  1  0  0  0
 10 11  1  0  0  0
 11 12  1  0  0  0
 12 13  1  0  0  0
 12 14  2  0  0  0
 14 16  1  0  0  0
 15 17  1  0  0  0
M  END
> <minimizedAffinity>
-7.53943

> <CNNscore>
0.5793123245

> <CNNaffinity>
5.9353466034

> <CNN_VS>
3.4384193420

> <CNNaffinity_variance>
0.0397979096

$$$$



 17 16  0  0  0  0  0  0  0  0999 V2000
  -50.5206   59.1459   64.2806 C   0  0  0  0  0  0  0  0  0  0  0  0
  -51.4194   60.3317   64.0733 C   0  0  0  0  0  0  0  0  0  0  0  0
  -50.1200   58.4329   63.2187 C   0  0  0  0  0  0  0  0  0  0  0  0
  -50.0621   58.7557   65.6700 C   0  0  0  0  0  0  0  0  0  0  0  0
  -49.2924   59.8978   66.3252 C   0  0  0  0  0  0  0  0  0  0  0  0
  -47.2605   60.8586   64.5483 C   0  0  0  0  0  0  0  0  0  0  0  0
  -46.8961   59.9665   65.6955 C   0  0  0  0  0  0  0  0  0  0  0  0
  -45.4637   59.5777   65.9063 C   0  0  0  0  0  0  0  0  0  0  0  0
  -47.8449   59.5132   66.5281 C   0  0  0  0  0  0  0  0  0  0  0  0
  -50.5696   58.8209   61.8288 C   0  0  0  0  0  0  0  0  0  0  0  0
  -51.0504   57.5904   61.0693 C   0  0  0  0  0  0  0  0  0  0  0  0
  -50.0723   57.2459   59.9670 C   0  0  0  0  0  0  0  0  0  0  0  0
  -49.2554   55.9950   60.0636 C   0  0  0  0  0  0  0  0  0  0  0  0
  -49.9403   58.0477   58.9000 C   0  0  0  0  0  0  0  0  0  0  0  0
  -47.7806   58.5007   57.9194 O   0  0  0  0  0  0  0  0  0  0  0  0
  -48.9722   57.7178   57.7869 C   0  0  0  0  0  0  0  0  0  0  0  0
  -47.1676   58.2807   57.2006 H   0  0  0  0  0  0  0  0  0  0  0  0
  6  7  1  0  0  0
 15 16  1  0  0  0
  7  8  1  0  0  0
  7  9  2  0  0  0
  9  5  1  0  0  0
  5  4  1  0  0  0
  4  1  1  0  0  0
  1  2  1  0  0  0
  1  3  2  0  0  0
  3 10  1  0  0  0
 10 11  1  0  0  0
 11 12  1  0  0  0
 12 13  1  0  0  0
 12 14  2  0  0  0
 14 16  1  0  0  0
 15 17  1  0  0  0
M  END
> <minimizedAffinity>
-7.42460

> <CNNscore>
0.5434764028

> <CNNaffinity>
5.6985764503

> <CNN_VS>
3.0970418453

> <CNNaffinity_variance>
0.0215408988

$$$$
