


 17 16  0  0  0  0  0  0  0  0999 V2000
  -47.7553   58.0417   65.8672 C   0  0  0  0  0  0  0  0  0  0  0  0
  -47.2843   56.7429   66.4574 C   0  0  0  0  0  0  0  0  0  0  0  0
  -46.9291   59.0972   65.8610 C   0  0  0  0  0  0  0  0  0  0  0  0
  -49.1446   58.1656   65.2781 C   0  0  0  0  0  0  0  0  0  0  0  0
  -49.1075   58.9420   63.9659 C   0  0  0  0  0  0  0  0  0  0  0  0
  -51.6120   59.5750   62.7265 C   0  0  0  0  0  0  0  0  0  0  0  0
  -50.8162   58.3965   62.2551 C   0  0  0  0  0  0  0  0  0  0  0  0
  -51.3387   57.5495   61.1340 C   0  0  0  0  0  0  0  0  0  0  0  0
  -49.6443   58.0959   62.8344 C   0  0  0  0  0  0  0  0  0  0  0  0
  -45.5390   58.9782   66.4423 C   0  0  0  0  0  0  0  0  0  0  0  0
  -44.4956   59.0987   65.3383 C   0  0  0  0  0  0  0  0  0  0  0  0
  -43.1219   59.2961   65.9419 C   0  0  0  0  0  0  0  0  0  0  0  0
  -42.9730   59.4090   67.4273 C   0  0  0  0  0  0  0  0  0  0  0  0
  -42.0368   59.3599   65.1562 C   0  0  0  0  0  0  0  0  0  0  0  0
  -40.0787   60.7696   65.2571 O   0  0  0  0  0  0  0  0  0  0  0  0
  -40.6561   59.5519   65.7411 C   0  0  0  0  0  0  0  0  0  0  0  0
  -39.1940   60.8820   65.6387 H   0  0  0  0  0  0  0  0  0  0  0  0
  6  7  1  0  0  0
 15 16  1  0  0  0
  7  8  1  0  0  0
  7  9  2  0  0  0
  9  5  1  0  0  0
  5  4  1  0  0  0
  4  1  1  0  0  0
  1  2  1  0  0  0
  1  3  2  0  0  0
  3 10  1  0  0  0
 10 11  1  0  0  0
 11 12  1  0  0  0
 12 13  1  0  0  0
 12 14  2  0  0  0
 14 16  1  0  0  0
 15 17  1  0  0  0
M  END
> <minimizedAffinity>
-7.66003

> <CNNscore>
0.8980944157

> <CNNaffinity>
6.4951424599

> <CNN_VS>
5.8332509995

> <CNNaffinity_variance>
0.4877298474

$$$$



 17 16  0  0  0  0  0  0  0  0999 V2000
  -45.8573   57.4057   65.4758 C   0  0  0  0  0  0  0  0  0  0  0  0
  -45.2916   57.7107   64.1179 C   0  0  0  0  0  0  0  0  0  0  0  0
  -45.0329   57.0104   66.4560 C   0  0  0  0  0  0  0  0  0  0  0  0
  -47.3406   57.5458   65.7457 C   0  0  0  0  0  0  0  0  0  0  0  0
  -47.8856   58.8237   65.1164 C   0  0  0  0  0  0  0  0  0  0  0  0
  -50.6806   59.4210   65.3192 C   0  0  0  0  0  0  0  0  0  0  0  0
  -50.1367   58.7779   64.0801 C   0  0  0  0  0  0  0  0  0  0  0  0
  -51.0632   58.4467   62.9490 C   0  0  0  0  0  0  0  0  0  0  0  0
  -48.8292   58.4950   63.9825 C   0  0  0  0  0  0  0  0  0  0  0  0
  -43.5506   56.8743   66.1943 C   0  0  0  0  0  0  0  0  0  0  0  0
  -42.8099   58.0990   66.7174 C   0  0  0  0  0  0  0  0  0  0  0  0
  -41.9403   58.6849   65.6261 C   0  0  0  0  0  0  0  0  0  0  0  0
  -40.6078   58.0705   65.3286 C   0  0  0  0  0  0  0  0  0  0  0  0
  -42.3597   59.7434   64.9173 C   0  0  0  0  0  0  0  0  0  0  0  0
  -40.4724   61.1525   64.3846 O   0  0  0  0  0  0  0  0  0  0  0  0
  -41.5073   60.3394   63.8204 C   0  0  0  0  0  0  0  0  0  0  0  0
  -39.9325   61.5291   63.6722 H   0  0  0  0  0  0  0  0  0  0  0  0
  6  7  1  0  0  0
 15 16  1  0  0  0
  7  8  1  0  0  0
  7  9  2  0  0  0
  9  5  1  0  0  0
  5  4  1  0  0  0
  4  1  1  0  0  0
  1  2  1  0  0  0
  1  3  2  0  0  0
  3 10  1  0  0  0
 10 11  1  0  0  0
 11 12  1  0  0  0
 12 13  1  0  0  0
 12 14  2  0  0  0
 14 16  1  0  0  0
 15 17  1  0  0  0
M  END
> <minimizedAffinity>
-7.15458

> <CNNscore>
0.7529909015

> <CNNaffinity>
6.1633410454

> <CNN_VS>
4.6409397125

> <CNNaffinity_variance>
0.2480123341

$$$$



 17 16  0  0  0  0  0  0  0  0999 V2000
  -50.4396   58.3807   60.9846 C   0  0  0  0  0  0  0  0  0  0  0  0
  -49.8785   59.7568   60.7646 C   0  0  0  0  0  0  0  0  0  0  0  0
  -50.0572   57.3800   60.1790 C   0  0  0  0  0  0  0  0  0  0  0  0
  -51.4228   58.1156   62.1052 C   0  0  0  0  0  0  0  0  0  0  0  0
  -51.3456   59.2125   63.1621 C   0  0  0  0  0  0  0  0  0  0  0  0
  -49.0160   60.5359   64.1775 C   0  0  0  0  0  0  0  0  0  0  0  0
  -49.5594   59.3274   64.8767 C   0  0  0  0  0  0  0  0  0  0  0  0
  -48.8762   58.8136   66.1082 C   0  0  0  0  0  0  0  0  0  0  0  0
  -50.6486   58.7042   64.4031 C   0  0  0  0  0  0  0  0  0  0  0  0
  -49.0716   57.6370   59.0623 C   0  0  0  0  0  0  0  0  0  0  0  0
  -47.7162   57.0323   59.4080 C   0  0  0  0  0  0  0  0  0  0  0  0
  -46.7299   57.2966   58.2911 C   0  0  0  0  0  0  0  0  0  0  0  0
  -47.0869   56.9314   56.8837 C   0  0  0  0  0  0  0  0  0  0  0  0
  -45.5435   57.8649   58.5520 C   0  0  0  0  0  0  0  0  0  0  0  0
  -43.3191   58.6268   58.0016 O   0  0  0  0  0  0  0  0  0  0  0  0
  -44.5474   58.1410   57.4488 C   0  0  0  0  0  0  0  0  0  0  0  0
  -42.6884   58.8002   57.2853 H   0  0  0  0  0  0  0  0  0  0  0  0
  6  7  1  0  0  0
 15 16  1  0  0  0
  7  8  1  0  0  0
  7  9  2  0  0  0
  9  5  1  0  0  0
  5  4  1  0  0  0
  4  1  1  0  0  0
  1  2  1  0  0  0
  1  3  2  0  0  0
  3 10  1  0  0  0
 10 11  1  0  0  0
 11 12  1  0  0  0
 12 13  1  0  0  0
 12 14  2  0  0  0
 14 16  1  0  0  0
 15 17  1  0  0  0
M  END
> <minimizedAffinity>
-8.21069

> <CNNscore>
0.6927890182

> <CNNaffinity>
6.1480956078

> <CNN_VS>
4.2593331337

> <CNNaffinity_variance>
0.1276578605

$$$$



 17 16  0  0  0  0  0  0  0  0999 V2000
  -46.3153   58.5878   65.4864 C   0  0  0  0  0  0  0  0  0  0  0  0
  -45.7164   57.8607   64.3161 C   0  0  0  0  0  0  0  0  0  0  0  0
  -45.5850   58.7559   66.5977 C   0  0  0  0  0  0  0  0  0  0  0  0
  -47.7261   59.1337   65.4189 C   0  0  0  0  0  0  0  0  0  0  0  0
  -48.7120   58.0361   65.0325 C   0  0  0  0  0  0  0  0  0  0  0  0
  -49.2006   58.0730   62.2095 C   0  0  0  0  0  0  0  0  0  0  0  0
  -50.2090   58.6506   63.1551 C   0  0  0  0  0  0  0  0  0  0  0  0
  -51.4728   59.2499   62.6157 C   0  0  0  0  0  0  0  0  0  0  0  0
  -49.9827   58.6369   64.4771 C   0  0  0  0  0  0  0  0  0  0  0  0
  -44.1742   58.2184   66.6690 C   0  0  0  0  0  0  0  0  0  0  0  0
  -43.2150   59.3168   67.1110 C   0  0  0  0  0  0  0  0  0  0  0  0
  -41.9204   59.2192   66.3333 C   0  0  0  0  0  0  0  0  0  0  0  0
  -41.5200   57.9138   65.7192 C   0  0  0  0  0  0  0  0  0  0  0  0
  -41.1354   60.2961   66.1818 C   0  0  0  0  0  0  0  0  0  0  0  0
  -38.7953   60.8888   66.1172 O   0  0  0  0  0  0  0  0  0  0  0  0
  -39.8411   60.2190   65.4044 C   0  0  0  0  0  0  0  0  0  0  0  0
  -37.9708   60.8329   65.6094 H   0  0  0  0  0  0  0  0  0  0  0  0
  6  7  1  0  0  0
 15 16  1  0  0  0
  7  8  1  0  0  0
  7  9  2  0  0  0
  9  5  1  0  0  0
  5  4  1  0  0  0
  4  1  1  0  0  0
  1  2  1  0  0  0
  1  3  2  0  0  0
  3 10  1  0  0  0
 10 11  1  0  0  0
 11 12  1  0  0  0
 12 13  1  0  0  0
 12 14  2  0  0  0
 14 16  1  0  0  0
 15 17  1  0  0  0
M  END
> <minimizedAffinity>
-7.02227

> <CNNscore>
0.6746053696

> <CNNaffinity>
6.0444507599

> <CNN_VS>
4.0776190758

> <CNNaffinity_variance>
0.3052613139

$$$$



 17 16  0  0  0  0  0  0  0  0999 V2000
  -43.3490   59.1982   65.9315 C   0  0  0  0  0  0  0  0  0  0  0  0
  -43.1883   59.4552   67.4029 C   0  0  0  0  0  0  0  0  0  0  0  0
  -42.2971   58.7648   65.2227 C   0  0  0  0  0  0  0  0  0  0  0  0
  -44.6823   59.4181   65.2484 C   0  0  0  0  0  0  0  0  0  0  0  0
  -45.2666   58.0944   64.7660 C   0  0  0  0  0  0  0  0  0  0  0  0
  -46.6219   56.8953   66.9874 C   0  0  0  0  0  0  0  0  0  0  0  0
  -47.4063   57.5575   65.8961 C   0  0  0  0  0  0  0  0  0  0  0  0
  -48.9032   57.5867   65.9719 C   0  0  0  0  0  0  0  0  0  0  0  0
  -46.7752   58.1181   64.8537 C   0  0  0  0  0  0  0  0  0  0  0  0
  -40.9651   58.5379   65.9000 C   0  0  0  0  0  0  0  0  0  0  0  0
  -39.9322   58.0667   64.8835 C   0  0  0  0  0  0  0  0  0  0  0  0
  -38.6575   58.8696   65.0288 C   0  0  0  0  0  0  0  0  0  0  0  0
  -37.3324   58.1995   64.8380 C   0  0  0  0  0  0  0  0  0  0  0  0
  -38.7075   60.1786   65.3165 C   0  0  0  0  0  0  0  0  0  0  0  0
  -37.5501   61.8735   66.5889 O   0  0  0  0  0  0  0  0  0  0  0  0
  -37.4453   60.9979   65.4607 C   0  0  0  0  0  0  0  0  0  0  0  0
  -36.7354   62.3935   66.6713 H   0  0  0  0  0  0  0  0  0  0  0  0
  6  7  1  0  0  0
 15 16  1  0  0  0
  7  8  1  0  0  0
  7  9  2  0  0  0
  9  5  1  0  0  0
  5  4  1  0  0  0
  4  1  1  0  0  0
  1  2  1  0  0  0
  1  3  2  0  0  0
  3 10  1  0  0  0
 10 11  1  0  0  0
 11 12  1  0  0  0
 12 13  1  0  0  0
 12 14  2  0  0  0
 14 16  1  0  0  0
 15 17  1  0  0  0
M  END
> <minimizedAffinity>
-6.85859

> <CNNscore>
0.6614801884

> <CNNaffinity>
5.7520799637

> <CNN_VS>
3.8048870564

> <CNNaffinity_variance>
0.1590563059

$$$$



 17 16  0  0  0  0  0  0  0  0999 V2000
  -45.6252   57.1573   65.7347 C   0  0  0  0  0  0  0  0  0  0  0  0
  -45.4389   57.8065   64.3928 C   0  0  0  0  0  0  0  0  0  0  0  0
  -44.5529   56.9205   66.5033 C   0  0  0  0  0  0  0  0  0  0  0  0
  -47.0061   56.7759   66.2251 C   0  0  0  0  0  0  0  0  0  0  0  0
  -47.8528   58.0195   66.4753 C   0  0  0  0  0  0  0  0  0  0  0  0
  -48.5571   59.9865   64.5145 C   0  0  0  0  0  0  0  0  0  0  0  0
  -49.4879   58.8497   64.8076 C   0  0  0  0  0  0  0  0  0  0  0  0
  -50.7899   58.7490   64.0716 C   0  0  0  0  0  0  0  0  0  0  0  0
  -49.1624   57.9282   65.7264 C   0  0  0  0  0  0  0  0  0  0  0  0
  -43.1725   57.3041   66.0218 C   0  0  0  0  0  0  0  0  0  0  0  0
  -42.7147   58.5863   66.7063 C   0  0  0  0  0  0  0  0  0  0  0  0
  -41.7420   59.3304   65.8172 C   0  0  0  0  0  0  0  0  0  0  0  0
  -42.2400   60.0167   64.5833 C   0  0  0  0  0  0  0  0  0  0  0  0
  -40.4397   59.3881   66.1327 C   0  0  0  0  0  0  0  0  0  0  0  0
  -38.7058   61.0664   66.0434 O   0  0  0  0  0  0  0  0  0  0  0  0
  -39.4541   60.1305   65.2595 C   0  0  0  0  0  0  0  0  0  0  0  0
  -38.0774   61.5363   65.4732 H   0  0  0  0  0  0  0  0  0  0  0  0
  6  7  1  0  0  0
 15 16  1  0  0  0
  7  8  1  0  0  0
  7  9  2  0  0  0
  9  5  1  0  0  0
  5  4  1  0  0  0
  4  1  1  0  0  0
  1  2  1  0  0  0
  1  3  2  0  0  0
  3 10  1  0  0  0
 10 11  1  0  0  0
 11 12  1  0  0  0
 12 13  1  0  0  0
 12 14  2  0  0  0
 14 16  1  0  0  0
 15 17  1  0  0  0
M  END
> <minimizedAffinity>
-7.00494

> <CNNscore>
0.6562413573

> <CNNaffinity>
6.0745267868

> <CNN_VS>
3.9863557816

> <CNNaffinity_variance>
0.3787533343

$$$$



 17 16  0  0  0  0  0  0  0  0999 V2000
  -47.3406   57.6154   65.4117 C   0  0  0  0  0  0  0  0  0  0  0  0
  -47.0355   56.6820   66.5487 C   0  0  0  0  0  0  0  0  0  0  0  0
  -46.3303   58.1324   64.6985 C   0  0  0  0  0  0  0  0  0  0  0  0
  -48.7709   57.9700   65.0637 C   0  0  0  0  0  0  0  0  0  0  0  0
  -48.8254   58.8037   63.7877 C   0  0  0  0  0  0  0  0  0  0  0  0
  -51.4638   59.4651   62.8872 C   0  0  0  0  0  0  0  0  0  0  0  0
  -50.7131   58.3354   62.2512 C   0  0  0  0  0  0  0  0  0  0  0  0
  -51.3510   57.5520   61.1436 C   0  0  0  0  0  0  0  0  0  0  0  0
  -49.4786   58.0216   62.6715 C   0  0  0  0  0  0  0  0  0  0  0  0
  -44.9007   57.7776   65.0372 C   0  0  0  0  0  0  0  0  0  0  0  0
  -44.2675   58.8855   65.8703 C   0  0  0  0  0  0  0  0  0  0  0  0
  -42.8293   59.0947   65.4482 C   0  0  0  0  0  0  0  0  0  0  0  0
  -42.5064   60.0954   64.3825 C   0  0  0  0  0  0  0  0  0  0  0  0
  -41.8418   58.3977   66.0297 C   0  0  0  0  0  0  0  0  0  0  0  0
  -39.9565   57.5002   64.8167 O   0  0  0  0  0  0  0  0  0  0  0  0
  -40.3990   58.5964   65.6248 C   0  0  0  0  0  0  0  0  0  0  0  0
  -39.0305   57.6385   64.5633 H   0  0  0  0  0  0  0  0  0  0  0  0
  6  7  1  0  0  0
 15 16  1  0  0  0
  7  8  1  0  0  0
  7  9  2  0  0  0
  9  5  1  0  0  0
  5  4  1  0  0  0
  4  1  1  0  0  0
  1  2  1  0  0  0
  1  3  2  0  0  0
  3 10  1  0  0  0
 10 11  1  0  0  0
 11 12  1  0  0  0
 12 13  1  0  0  0
 12 14  2  0  0  0
 14 16  1  0  0  0
 15 17  1  0  0  0
M  END
> <minimizedAffinity>
-7.39933

> <CNNscore>
0.6517182589

> <CNNaffinity>
6.1766748428

> <CNN_VS>
4.0254516602

> <CNNaffinity_variance>
0.4013835788

$$$$



 17 16  0  0  0  0  0  0  0  0999 V2000
  -50.2074   58.5995   63.8316 C   0  0  0  0  0  0  0  0  0  0  0  0
  -50.7383   58.4454   65.2285 C   0  0  0  0  0  0  0  0  0  0  0  0
  -48.9083   58.3694   63.5947 C   0  0  0  0  0  0  0  0  0  0  0  0
  -51.1231   59.0043   62.6957 C   0  0  0  0  0  0  0  0  0  0  0  0
  -51.1758   57.9145   61.6300 C   0  0  0  0  0  0  0  0  0  0  0  0
  -49.5763   55.8823   60.3967 C   0  0  0  0  0  0  0  0  0  0  0  0
  -49.5055   57.2962   59.9063 C   0  0  0  0  0  0  0  0  0  0  0  0
  -48.5917   57.6415   58.7692 C   0  0  0  0  0  0  0  0  0  0  0  0
  -50.2513   58.2505   60.4826 C   0  0  0  0  0  0  0  0  0  0  0  0
  -47.9904   57.9593   64.7233 C   0  0  0  0  0  0  0  0  0  0  0  0
  -47.0765   59.1175   65.1047 C   0  0  0  0  0  0  0  0  0  0  0  0
  -45.6708   58.6116   65.3462 C   0  0  0  0  0  0  0  0  0  0  0  0
  -45.4249   57.1414   65.4864 C   0  0  0  0  0  0  0  0  0  0  0  0
  -44.6433   59.4700   65.4250 C   0  0  0  0  0  0  0  0  0  0  0  0
  -42.8739   59.1521   67.0372 O   0  0  0  0  0  0  0  0  0  0  0  0
  -43.2318   58.9831   65.6611 C   0  0  0  0  0  0  0  0  0  0  0  0
  -41.9673   58.8366   67.1765 H   0  0  0  0  0  0  0  0  0  0  0  0
  6  7  1  0  0  0
 15 16  1  0  0  0
  7  8  1  0  0  0
  7  9  2  0  0  0
  9  5  1  0  0  0
  5  4  1  0  0  0
  4  1  1  0  0  0
  1  2  1  0  0  0
  1  3  2  0  0  0
  3 10  1  0  0  0
 10 11  1  0  0  0
 11 12  1  0  0  0
 12 13  1  0  0  0
 12 14  2  0  0  0
 14 16  1  0  0  0
 15 17  1  0  0  0
M  END
> <minimizedAffinity>
-7.58391

> <CNNscore>
0.6348081231

> <CNNaffinity>
6.1380701065

> <CNN_VS>
3.8964967728

> <CNNaffinity_variance>
0.2627902031

$$$$



 17 16  0  0  0  0  0  0  0  0999 V2000
  -50.5848   59.3446   63.5006 C   0  0  0  0  0  0  0  0  0  0  0  0
  -49.5193   60.3978   63.3896 C   0  0  0  0  0  0  0  0  0  0  0  0
  -50.6681   58.6114   64.6197 C   0  0  0  0  0  0  0  0  0  0  0  0
  -51.5623   59.1100   62.3684 C   0  0  0  0  0  0  0  0  0  0  0  0
  -51.1706   57.8749   61.5639 C   0  0  0  0  0  0  0  0  0  0  0  0
  -49.5465   55.8545   60.3433 C   0  0  0  0  0  0  0  0  0  0  0  0
  -49.4051   57.2866   59.9266 C   0  0  0  0  0  0  0  0  0  0  0  0
  -48.4079   57.6563   58.8701 C   0  0  0  0  0  0  0  0  0  0  0  0
  -50.1623   58.2354   60.4973 C   0  0  0  0  0  0  0  0  0  0  0  0
  -49.6989   58.8448   65.7557 C   0  0  0  0  0  0  0  0  0  0  0  0
  -48.9431   57.5604   66.0739 C   0  0  0  0  0  0  0  0  0  0  0  0
  -47.4517   57.8163   66.0495 C   0  0  0  0  0  0  0  0  0  0  0  0
  -46.9394   59.1931   65.7606 C   0  0  0  0  0  0  0  0  0  0  0  0
  -46.5869   56.8211   66.2954 C   0  0  0  0  0  0  0  0  0  0  0  0
  -44.4496   56.1018   65.4318 O   0  0  0  0  0  0  0  0  0  0  0  0
  -45.0941   57.0586   66.2801 C   0  0  0  0  0  0  0  0  0  0  0  0
  -43.4932   56.2638   65.4299 H   0  0  0  0  0  0  0  0  0  0  0  0
  6  7  1  0  0  0
 15 16  1  0  0  0
  7  8  1  0  0  0
  7  9  2  0  0  0
  9  5  1  0  0  0
  5  4  1  0  0  0
  4  1  1  0  0  0
  1  2  1  0  0  0
  1  3  2  0  0  0
  3 10  1  0  0  0
 10 11  1  0  0  0
 11 12  1  0  0  0
 12 13  1  0  0  0
 12 14  2  0  0  0
 14 16  1  0  0  0
 15 17  1  0  0  0
M  END
> <minimizedAffinity>
-8.00068

> <CNNscore>
0.6240588427

> <CNNaffinity>
6.2181310654

> <CNN_VS>
3.8804795742

> <CNNaffinity_variance>
0.4350321889

$$$$
