


 17 16  0  0  0  0  0  0  0  0999 V2000
  -46.5745   59.2717   65.6609 C   0  0  0  0  0  0  0  0  0  0  0  0
  -46.5404   57.8188   66.0413 C   0  0  0  0  0  0  0  0  0  0  0  0
  -45.4363   59.8832   65.3043 C   0  0  0  0  0  0  0  0  0  0  0  0
  -47.8767   60.0443   65.6716 C   0  0  0  0  0  0  0  0  0  0  0  0
  -49.0685   59.0948   65.6075 C   0  0  0  0  0  0  0  0  0  0  0  0
  -49.6493   58.1941   62.9503 C   0  0  0  0  0  0  0  0  0  0  0  0
  -50.4660   59.2869   63.5694 C   0  0  0  0  0  0  0  0  0  0  0  0
  -51.5862   59.9076   62.7901 C   0  0  0  0  0  0  0  0  0  0  0  0
  -50.1957   59.7125   64.8124 C   0  0  0  0  0  0  0  0  0  0  0  0
  -44.1343   59.1159   65.2860 C   0  0  0  0  0  0  0  0  0  0  0  0
  -43.0814   59.8861   64.4984 C   0  0  0  0  0  0  0  0  0  0  0  0
  -41.9175   60.2418   65.3979 C   0  0  0  0  0  0  0  0  0  0  0  0
  -42.1015   60.2444   66.8838 C   0  0  0  0  0  0  0  0  0  0  0  0
  -40.7206   60.5441   64.8737 C   0  0  0  0  0  0  0  0  0  0  0  0
  -39.3779   62.3183   65.8123 O   0  0  0  0  0  0  0  0  0  0  0  0
  -39.5453   60.8973   65.7564 C   0  0  0  0  0  0  0  0  0  0  0  0
  -38.6218   62.5327   66.3808 H   0  0  0  0  0  0  0  0  0  0  0  0
  6  7  1  0  0  0
 15 16  1  0  0  0
  7  8  1  0  0  0
  7  9  2  0  0  0
  9  5  1  0  0  0
  5  4  1  0  0  0
  4  1  1  0  0  0
  1  2  1  0  0  0
  1  3  2  0  0  0
  3 10  1  0  0  0
 10 11  1  0  0  0
 11 12  1  0  0  0
 12 13  1  0  0  0
 12 14  2  0  0  0
 14 16  1  0  0  0
 15 17  1  0  0  0
M  END
> <minimizedAffinity>
-7.47389

> <CNNscore>
0.8721039891

> <CNNaffinity>
6.2870683670

> <CNN_VS>
5.4829773903

> <CNNaffinity_variance>
0.5327929258

$$$$



 17 16  0  0  0  0  0  0  0  0999 V2000
  -46.2412   59.1343   65.4705 C   0  0  0  0  0  0  0  0  0  0  0  0
  -46.3409   57.8632   66.2650 C   0  0  0  0  0  0  0  0  0  0  0  0
  -45.0328   59.6551   65.2152 C   0  0  0  0  0  0  0  0  0  0  0  0
  -47.4863   59.8243   64.9544 C   0  0  0  0  0  0  0  0  0  0  0  0
  -48.7165   58.9482   65.1668 C   0  0  0  0  0  0  0  0  0  0  0  0
  -50.9846   60.1310   63.8759 C   0  0  0  0  0  0  0  0  0  0  0  0
  -50.2802   58.9697   63.2437 C   0  0  0  0  0  0  0  0  0  0  0  0
  -50.7703   58.4289   61.9343 C   0  0  0  0  0  0  0  0  0  0  0  0
  -49.2194   58.4121   63.8462 C   0  0  0  0  0  0  0  0  0  0  0  0
  -43.7859   58.9680   65.7226 C   0  0  0  0  0  0  0  0  0  0  0  0
  -42.9108   59.9592   66.4801 C   0  0  0  0  0  0  0  0  0  0  0  0
  -41.5032   59.9388   65.9245 C   0  0  0  0  0  0  0  0  0  0  0  0
  -40.9743   58.6910   65.2883 C   0  0  0  0  0  0  0  0  0  0  0  0
  -40.7309   61.0335   65.9888 C   0  0  0  0  0  0  0  0  0  0  0  0
  -38.6987   62.2993   65.6739 O   0  0  0  0  0  0  0  0  0  0  0  0
  -39.3243   61.0336   65.4351 C   0  0  0  0  0  0  0  0  0  0  0  0
  -37.7978   62.2876   65.3147 H   0  0  0  0  0  0  0  0  0  0  0  0
  6  7  1  0  0  0
 15 16  1  0  0  0
  7  8  1  0  0  0
  7  9  2  0  0  0
  9  5  1  0  0  0
  5  4  1  0  0  0
  4  1  1  0  0  0
  1  2  1  0  0  0
  1  3  2  0  0  0
  3 10  1  0  0  0
 10 11  1  0  0  0
 11 12  1  0  0  0
 12 13  1  0  0  0
 12 14  2  0  0  0
 14 16  1  0  0  0
 15 17  1  0  0  0
M  END
> <minimizedAffinity>
-7.36558

> <CNNscore>
0.8619672656

> <CNNaffinity>
6.3199911118

> <CNN_VS>
5.4476256371

> <CNNaffinity_variance>
0.7403810620

$$$$



 17 16  0  0  0  0  0  0  0  0999 V2000
  -47.1512   59.4470   65.2913 C   0  0  0  0  0  0  0  0  0  0  0  0
  -47.3732   60.8664   64.8519 C   0  0  0  0  0  0  0  0  0  0  0  0
  -45.8982   58.9918   65.4304 C   0  0  0  0  0  0  0  0  0  0  0  0
  -48.3239   58.5343   65.5820 C   0  0  0  0  0  0  0  0  0  0  0  0
  -49.5699   59.0021   64.8372 C   0  0  0  0  0  0  0  0  0  0  0  0
  -51.3899   59.8917   62.8110 C   0  0  0  0  0  0  0  0  0  0  0  0
  -50.6062   58.6297   62.6166 C   0  0  0  0  0  0  0  0  0  0  0  0
  -50.7818   57.8345   61.3580 C   0  0  0  0  0  0  0  0  0  0  0  0
  -49.7548   58.2092   63.5639 C   0  0  0  0  0  0  0  0  0  0  0  0
  -44.7235   59.8997   65.1473 C   0  0  0  0  0  0  0  0  0  0  0  0
  -43.5447   59.5274   66.0384 C   0  0  0  0  0  0  0  0  0  0  0  0
  -42.2624   60.0907   65.4651 C   0  0  0  0  0  0  0  0  0  0  0  0
  -42.1833   60.4207   64.0069 C   0  0  0  0  0  0  0  0  0  0  0  0
  -41.2009   60.3060   66.2560 C   0  0  0  0  0  0  0  0  0  0  0  0
  -39.8808   62.2928   65.8804 O   0  0  0  0  0  0  0  0  0  0  0  0
  -39.9133   60.8724   65.7023 C   0  0  0  0  0  0  0  0  0  0  0  0
  -39.0510   62.6447   65.5219 H   0  0  0  0  0  0  0  0  0  0  0  0
  6  7  1  0  0  0
 15 16  1  0  0  0
  7  8  1  0  0  0
  7  9  2  0  0  0
  9  5  1  0  0  0
  5  4  1  0  0  0
  4  1  1  0  0  0
  1  2  1  0  0  0
  1  3  2  0  0  0
  3 10  1  0  0  0
 10 11  1  0  0  0
 11 12  1  0  0  0
 12 13  1  0  0  0
 12 14  2  0  0  0
 14 16  1  0  0  0
 15 17  1  0  0  0
M  END
> <minimizedAffinity>
-7.71693

> <CNNscore>
0.8102742434

> <CNNaffinity>
6.2281599045

> <CNN_VS>
5.0465173721

> <CNNaffinity_variance>
0.6003004909

$$$$



 17 16  0  0  0  0  0  0  0  0999 V2000
  -50.4878   58.3220   62.1077 C   0  0  0  0  0  0  0  0  0  0  0  0
  -51.3202   59.4753   62.5913 C   0  0  0  0  0  0  0  0  0  0  0  0
  -49.3858   57.9775   62.7887 C   0  0  0  0  0  0  0  0  0  0  0  0
  -50.8840   57.5472   60.8686 C   0  0  0  0  0  0  0  0  0  0  0  0
  -49.7274   56.6813   60.3803 C   0  0  0  0  0  0  0  0  0  0  0  0
  -47.4884   55.4189   59.1142 C   0  0  0  0  0  0  0  0  0  0  0  0
  -47.9970   56.7335   58.6064 C   0  0  0  0  0  0  0  0  0  0  0  0
  -47.3265   57.3852   57.4347 C   0  0  0  0  0  0  0  0  0  0  0  0
  -49.0436   57.3283   59.1979 C   0  0  0  0  0  0  0  0  0  0  0  0
  -48.9882   58.7434   64.0295 C   0  0  0  0  0  0  0  0  0  0  0  0
  -48.6518   57.7767   65.1585 C   0  0  0  0  0  0  0  0  0  0  0  0
  -47.2145   57.9660   65.5928 C   0  0  0  0  0  0  0  0  0  0  0  0
  -46.7360   59.3236   66.0046 C   0  0  0  0  0  0  0  0  0  0  0  0
  -46.3700   56.9244   65.6212 C   0  0  0  0  0  0  0  0  0  0  0  0
  -44.0610   56.3757   65.1752 O   0  0  0  0  0  0  0  0  0  0  0  0
  -44.9322   57.0931   66.0565 C   0  0  0  0  0  0  0  0  0  0  0  0
  -43.1423   56.4911   65.4641 H   0  0  0  0  0  0  0  0  0  0  0  0
  6  7  1  0  0  0
 15 16  1  0  0  0
  7  8  1  0  0  0
  7  9  2  0  0  0
  9  5  1  0  0  0
  5  4  1  0  0  0
  4  1  1  0  0  0
  1  2  1  0  0  0
  1  3  2  0  0  0
  3 10  1  0  0  0
 10 11  1  0  0  0
 11 12  1  0  0  0
 12 13  1  0  0  0
 12 14  2  0  0  0
 14 16  1  0  0  0
 15 17  1  0  0  0
M  END
> <minimizedAffinity>
-8.06918

> <CNNscore>
0.7810286283

> <CNNaffinity>
6.7049226761

> <CNN_VS>
5.2367367744

> <CNNaffinity_variance>
0.6199262738

$$$$



 17 16  0  0  0  0  0  0  0  0999 V2000
  -48.3270   58.3025   65.0448 C   0  0  0  0  0  0  0  0  0  0  0  0
  -47.9028   59.7365   65.1889 C   0  0  0  0  0  0  0  0  0  0  0  0
  -47.4852   57.3288   65.4191 C   0  0  0  0  0  0  0  0  0  0  0  0
  -49.6909   57.9508   64.4892 C   0  0  0  0  0  0  0  0  0  0  0  0
  -49.8994   58.5942   63.1222 C   0  0  0  0  0  0  0  0  0  0  0  0
  -51.0829   57.2557   60.8823 C   0  0  0  0  0  0  0  0  0  0  0  0
  -49.5929   57.2955   61.0334 C   0  0  0  0  0  0  0  0  0  0  0  0
  -48.7257   56.6291   60.0081 C   0  0  0  0  0  0  0  0  0  0  0  0
  -49.0355   57.9194   62.0818 C   0  0  0  0  0  0  0  0  0  0  0  0
  -46.1247   57.6736   65.9798 C   0  0  0  0  0  0  0  0  0  0  0  0
  -45.0543   57.4935   64.9103 C   0  0  0  0  0  0  0  0  0  0  0  0
  -43.8627   58.3752   65.2150 C   0  0  0  0  0  0  0  0  0  0  0  0
  -43.9349   59.8440   64.9342 C   0  0  0  0  0  0  0  0  0  0  0  0
  -42.7471   57.8515   65.7442 C   0  0  0  0  0  0  0  0  0  0  0  0
  -40.5447   58.5588   65.0508 O   0  0  0  0  0  0  0  0  0  0  0  0
  -41.5485   58.7171   66.0597 C   0  0  0  0  0  0  0  0  0  0  0  0
  -39.7814   59.1183   65.2636 H   0  0  0  0  0  0  0  0  0  0  0  0
  6  7  1  0  0  0
 15 16  1  0  0  0
  7  8  1  0  0  0
  7  9  2  0  0  0
  9  5  1  0  0  0
  5  4  1  0  0  0
  4  1  1  0  0  0
  1  2  1  0  0  0
  1  3  2  0  0  0
  3 10  1  0  0  0
 10 11  1  0  0  0
 11 12  1  0  0  0
 12 13  1  0  0  0
 12 14  2  0  0  0
 14 16  1  0  0  0
 15 17  1  0  0  0
M  END
> <minimizedAffinity>
-7.23365

> <CNNscore>
0.7458925843

> <CNNaffinity>
6.3128380775

> <CNN_VS>
4.7086992264

> <CNNaffinity_variance>
0.3775830865

$$$$



 17 16  0  0  0  0  0  0  0  0999 V2000
  -49.7876   57.0024   60.8741 C   0  0  0  0  0  0  0  0  0  0  0  0
  -51.2741   57.1881   60.7612 C   0  0  0  0  0  0  0  0  0  0  0  0
  -49.1211   57.6275   61.8547 C   0  0  0  0  0  0  0  0  0  0  0  0
  -49.0420   56.1160   59.8988 C   0  0  0  0  0  0  0  0  0  0  0  0
  -49.0805   56.7073   58.4935 C   0  0  0  0  0  0  0  0  0  0  0  0
  -47.3298   55.4223   56.6245 C   0  0  0  0  0  0  0  0  0  0  0  0
  -46.9289   56.7169   57.2630 C   0  0  0  0  0  0  0  0  0  0  0  0
  -45.6063   57.3341   56.9206 C   0  0  0  0  0  0  0  0  0  0  0  0
  -47.7450   57.3203   58.1400 C   0  0  0  0  0  0  0  0  0  0  0  0
  -49.8606   58.5089   62.8348 C   0  0  0  0  0  0  0  0  0  0  0  0
  -48.9215   59.5659   63.4032 C   0  0  0  0  0  0  0  0  0  0  0  0
  -48.2300   59.0347   64.6401 C   0  0  0  0  0  0  0  0  0  0  0  0
  -48.6702   57.7334   65.2355 C   0  0  0  0  0  0  0  0  0  0  0  0
  -47.2194   59.7160   65.1997 C   0  0  0  0  0  0  0  0  0  0  0  0
  -45.2441   58.6396   66.0776 O   0  0  0  0  0  0  0  0  0  0  0  0
  -46.5135   59.1990   66.4324 C   0  0  0  0  0  0  0  0  0  0  0  0
  -44.8009   58.3115   66.8756 H   0  0  0  0  0  0  0  0  0  0  0  0
  6  7  1  0  0  0
 15 16  1  0  0  0
  7  8  1  0  0  0
  7  9  2  0  0  0
  9  5  1  0  0  0
  5  4  1  0  0  0
  4  1  1  0  0  0
  1  2  1  0  0  0
  1  3  2  0  0  0
  3 10  1  0  0  0
 10 11  1  0  0  0
 11 12  1  0  0  0
 12 13  1  0  0  0
 12 14  2  0  0  0
 14 16  1  0  0  0
 15 17  1  0  0  0
M  END
> <minimizedAffinity>
-7.31234

> <CNNscore>
0.7361056805

> <CNNaffinity>
6.3755636215

> <CNN_VS>
4.6930885315

> <CNNaffinity_variance>
0.5949583650

$$$$



 17 16  0  0  0  0  0  0  0  0999 V2000
  -46.0698   58.6173   65.2499 C   0  0  0  0  0  0  0  0  0  0  0  0
  -45.7520   57.2609   65.8120 C   0  0  0  0  0  0  0  0  0  0  0  0
  -47.2894   58.8484   64.7442 C   0  0  0  0  0  0  0  0  0  0  0  0
  -45.0320   59.7199   65.2550 C   0  0  0  0  0  0  0  0  0  0  0  0
  -43.6770   59.1882   64.7995 C   0  0  0  0  0  0  0  0  0  0  0  0
  -41.6941   59.5211   66.8408 C   0  0  0  0  0  0  0  0  0  0  0  0
  -41.7393   60.4617   65.6755 C   0  0  0  0  0  0  0  0  0  0  0  0
  -40.7436   61.5787   65.5853 C   0  0  0  0  0  0  0  0  0  0  0  0
  -42.6675   60.3101   64.7191 C   0  0  0  0  0  0  0  0  0  0  0  0
  -48.3315   57.7537   64.7415 C   0  0  0  0  0  0  0  0  0  0  0  0
  -49.7276   58.3568   64.8395 C   0  0  0  0  0  0  0  0  0  0  0  0
  -50.2802   58.6136   63.4542 C   0  0  0  0  0  0  0  0  0  0  0  0
  -51.0751   59.8547   63.1905 C   0  0  0  0  0  0  0  0  0  0  0  0
  -50.0539   57.7428   62.4596 C   0  0  0  0  0  0  0  0  0  0  0  0
  -51.4325   56.8958   60.6671 O   0  0  0  0  0  0  0  0  0  0  0  0
  -50.5937   57.9847   61.0685 C   0  0  0  0  0  0  0  0  0  0  0  0
  -51.7727   57.0618   59.7740 H   0  0  0  0  0  0  0  0  0  0  0  0
  6  7  1  0  0  0
 15 16  1  0  0  0
  7  8  1  0  0  0
  7  9  2  0  0  0
  9  5  1  0  0  0
  5  4  1  0  0  0
  4  1  1  0  0  0
  1  2  1  0  0  0
  1  3  2  0  0  0
  3 10  1  0  0  0
 10 11  1  0  0  0
 11 12  1  0  0  0
 12 13  1  0  0  0
 12 14  2  0  0  0
 14 16  1  0  0  0
 15 17  1  0  0  0
M  END
> <minimizedAffinity>
-7.40119

> <CNNscore>
0.7098554969

> <CNNaffinity>
6.2387323380

> <CNN_VS>
4.4285984039

> <CNNaffinity_variance>
0.4890985489

$$$$



 17 16  0  0  0  0  0  0  0  0999 V2000
  -47.6031   59.0358   65.2734 C   0  0  0  0  0  0  0  0  0  0  0  0
  -47.9960   60.2400   66.0811 C   0  0  0  0  0  0  0  0  0  0  0  0
  -46.3038   58.7844   65.0602 C   0  0  0  0  0  0  0  0  0  0  0  0
  -48.6559   58.1066   64.7068 C   0  0  0  0  0  0  0  0  0  0  0  0
  -48.5084   57.9822   63.1939 C   0  0  0  0  0  0  0  0  0  0  0  0
  -48.7417   57.0040   60.5109 C   0  0  0  0  0  0  0  0  0  0  0  0
  -49.9689   57.3792   61.2841 C   0  0  0  0  0  0  0  0  0  0  0  0
  -51.3182   57.2425   60.6453 C   0  0  0  0  0  0  0  0  0  0  0  0
  -49.8633   57.8394   62.5396 C   0  0  0  0  0  0  0  0  0  0  0  0
  -45.2481   59.7048   65.6281 C   0  0  0  0  0  0  0  0  0  0  0  0
  -43.9493   58.9398   65.8524 C   0  0  0  0  0  0  0  0  0  0  0  0
  -42.7639   59.8256   65.5354 C   0  0  0  0  0  0  0  0  0  0  0  0
  -41.8902   60.3217   66.6454 C   0  0  0  0  0  0  0  0  0  0  0  0
  -42.4850   60.1601   64.2669 C   0  0  0  0  0  0  0  0  0  0  0  0
  -41.7173   62.1294   63.0989 O   0  0  0  0  0  0  0  0  0  0  0  0
  -41.3026   61.0399   63.9305 C   0  0  0  0  0  0  0  0  0  0  0  0
  -40.9512   62.6863   62.8898 H   0  0  0  0  0  0  0  0  0  0  0  0
  6  7  1  0  0  0
 15 16  1  0  0  0
  7  8  1  0  0  0
  7  9  2  0  0  0
  9  5  1  0  0  0
  5  4  1  0  0  0
  4  1  1  0  0  0
  1  2  1  0  0  0
  1  3  2  0  0  0
  3 10  1  0  0  0
 10 11  1  0  0  0
 11 12  1  0  0  0
 12 13  1  0  0  0
 12 14  2  0  0  0
 14 16  1  0  0  0
 15 17  1  0  0  0
M  END
> <minimizedAffinity>
-7.01422

> <CNNscore>
0.7086566687

> <CNNaffinity>
6.0281734467

> <CNN_VS>
4.2719054222

> <CNNaffinity_variance>
0.4060699940

$$$$



 17 16  0  0  0  0  0  0  0  0999 V2000
  -50.0485   59.7095   62.5220 C   0  0  0  0  0  0  0  0  0  0  0  0
  -51.5293   59.7763   62.7664 C   0  0  0  0  0  0  0  0  0  0  0  0
  -49.5609   58.7675   61.7026 C   0  0  0  0  0  0  0  0  0  0  0  0
  -49.1093   60.6949   63.1851 C   0  0  0  0  0  0  0  0  0  0  0  0
  -48.8358   60.2914   64.6303 C   0  0  0  0  0  0  0  0  0  0  0  0
  -48.2618   57.5041   64.9637 C   0  0  0  0  0  0  0  0  0  0  0  0
  -47.1464   58.5041   64.9391 C   0  0  0  0  0  0  0  0  0  0  0  0
  -45.7298   58.0384   65.0926 C   0  0  0  0  0  0  0  0  0  0  0  0
  -47.4115   59.8099   64.7853 C   0  0  0  0  0  0  0  0  0  0  0  0
  -50.4938   57.7848   61.0332 C   0  0  0  0  0  0  0  0  0  0  0  0
  -50.2521   57.7718   59.5286 C   0  0  0  0  0  0  0  0  0  0  0  0
  -49.1758   56.7651   59.1846 C   0  0  0  0  0  0  0  0  0  0  0  0
  -48.9797   55.5618   60.0536 C   0  0  0  0  0  0  0  0  0  0  0  0
  -48.4042   56.9381   58.1013 C   0  0  0  0  0  0  0  0  0  0  0  0
  -47.8046   55.0414   56.7322 O   0  0  0  0  0  0  0  0  0  0  0  0
  -47.3274   55.9409   57.7390 C   0  0  0  0  0  0  0  0  0  0  0  0
  -47.1060   54.4069   56.5080 H   0  0  0  0  0  0  0  0  0  0  0  0
  6  7  1  0  0  0
 15 16  1  0  0  0
  7  8  1  0  0  0
  7  9  2  0  0  0
  9  5  1  0  0  0
  5  4  1  0  0  0
  4  1  1  0  0  0
  1  2  1  0  0  0
  1  3  2  0  0  0
  3 10  1  0  0  0
 10 11  1  0  0  0
 11 12  1  0  0  0
 12 13  1  0  0  0
 12 14  2  0  0  0
 14 16  1  0  0  0
 15 17  1  0  0  0
M  END
> <minimizedAffinity>
-7.71065

> <CNNscore>
0.7079997659

> <CNNaffinity>
6.4693984985

> <CNN_VS>
4.5803327560

> <CNNaffinity_variance>
0.4131360054

$$$$
