


 25 25  0  0  0  0  0  0  0  0999 V2000
  -49.6896   56.8646   59.7100 C   0  0  0  0  0  0  0  0  0  0  0  0
  -49.6486   57.7615   58.4708 C   0  0  0  0  0  0  0  0  0  0  0  0
  -48.8571   57.0641   57.3633 C   0  0  0  0  0  0  0  0  0  0  0  0
  -47.8977   58.0648   56.7153 C   0  0  0  0  0  0  0  0  0  0  0  0
  -46.9649   58.6420   57.7826 C   0  0  0  0  0  0  0  0  0  0  0  0
  -45.5327   57.4399   59.3529 C   0  0  0  0  0  0  0  0  0  0  0  0
  -45.8907   57.6357   58.1079 C   0  0  0  0  0  0  0  0  0  0  0  0
  -46.3047   58.0906   60.4703 C   0  0  0  0  0  0  0  0  0  0  0  0
  -45.8193   60.0494   61.8452 C   0  0  0  0  0  0  0  0  0  0  0  0
  -45.3755   58.9487   61.2892 C   0  0  0  0  0  0  0  0  0  0  0  0
  -47.2915   60.3694   61.8116 C   0  0  0  0  0  0  0  0  0  0  0  0
  -48.9520   60.9022   60.0223 C   0  0  0  0  0  0  0  0  0  0  0  0
  -47.5906   61.2734   60.6139 C   0  0  0  0  0  0  0  0  0  0  0  0
  -50.4837   57.5601   60.8175 C   0  0  0  0  0  0  0  0  0  0  0  0
  -49.6446   57.6047   62.0964 C   0  0  0  0  0  0  0  0  0  0  0  0
  -50.2369   58.6085   63.0513 C   0  0  0  0  0  0  0  0  0  0  0  0
  -51.2196   59.4796   62.6180 C   0  0  0  0  0  0  0  0  0  0  0  0
  -51.7654   60.4007   63.4919 C   0  0  0  0  0  0  0  0  0  0  0  0
  -51.3301   60.4563   64.8036 C   0  0  0  0  0  0  0  0  0  0  0  0
  -50.3469   59.5856   65.2442 C   0  0  0  0  0  0  0  0  0  0  0  0
  -49.9189   59.6375   66.5348 O   0  0  0  0  0  0  0  0  0  0  0  0
  -49.8009   58.6542   64.3653 C   0  0  0  0  0  0  0  0  0  0  0  0
  -48.8351   57.7981   64.7940 O   0  0  0  0  0  0  0  0  0  0  0  0
  -50.2870   60.2648   67.1256 H   0  0  0  0  0  0  0  0  0  0  0  0
  -48.4680   57.1715   64.2019 H   0  0  0  0  0  0  0  0  0  0  0  0
 12 13  1  0  0  0
 13 11  1  0  0  0
 11  9  1  0  0  0
  9 10  2  0  0  0
 10  8  1  0  0  0
  8  6  1  0  0  0
  6  7  2  0  0  0
  7  5  1  0  0  0
  5  4  1  0  0  0
  4  3  1  0  0  0
  3  2  1  0  0  0
  2  1  1  0  0  0
  1 14  1  0  0  0
 14 15  1  0  0  0
 15 16  1  0  0  0
 16 17  2  0  0  0
 16 22  1  0  0  0
 17 18  1  0  0  0
 18 19  2  0  0  0
 19 20  1  0  0  0
 20 22  2  0  0  0
 20 21  1  0  0  0
 22 23  1  0  0  0
 21 24  1  0  0  0
 23 25  1  0  0  0
M  END
> <minimizedAffinity>
-8.98985

$$$$



 25 25  0  0  0  0  0  0  0  0999 V2000
  -50.0857   56.9271   59.6659 C   0  0  0  0  0  0  0  0  0  0  0  0
  -48.7593   56.2106   59.9279 C   0  0  0  0  0  0  0  0  0  0  0  0
  -48.1978   55.6799   58.6078 C   0  0  0  0  0  0  0  0  0  0  0  0
  -46.6840   55.9011   58.5725 C   0  0  0  0  0  0  0  0  0  0  0  0
  -46.3648   57.3217   59.0443 C   0  0  0  0  0  0  0  0  0  0  0  0
  -47.0792   59.2788   57.7709 C   0  0  0  0  0  0  0  0  0  0  0  0
  -46.2843   58.2404   57.8519 C   0  0  0  0  0  0  0  0  0  0  0  0
  -47.9527   59.6521   58.9395 C   0  0  0  0  0  0  0  0  0  0  0  0
  -47.1986   61.2400   60.6345 C   0  0  0  0  0  0  0  0  0  0  0  0
  -47.6029   61.0423   59.4037 C   0  0  0  0  0  0  0  0  0  0  0  0
  -46.9189   60.0632   61.5334 C   0  0  0  0  0  0  0  0  0  0  0  0
  -45.1395   58.4927   62.3142 C   0  0  0  0  0  0  0  0  0  0  0  0
  -45.4100   59.8188   61.6004 C   0  0  0  0  0  0  0  0  0  0  0  0
  -50.7182   57.3337   60.9984 C   0  0  0  0  0  0  0  0  0  0  0  0
  -49.6203   57.7568   61.9767 C   0  0  0  0  0  0  0  0  0  0  0  0
  -50.1997   58.6872   63.0106 C   0  0  0  0  0  0  0  0  0  0  0  0
  -51.1975   59.5775   62.6587 C   0  0  0  0  0  0  0  0  0  0  0  0
  -51.7315   60.4314   63.6052 C   0  0  0  0  0  0  0  0  0  0  0  0
  -51.2692   60.4001   64.9085 C   0  0  0  0  0  0  0  0  0  0  0  0
  -50.2708   59.5096   65.2677 C   0  0  0  0  0  0  0  0  0  0  0  0
  -49.8162   59.4761   66.5497 O   0  0  0  0  0  0  0  0  0  0  0  0
  -49.7366   58.6459   64.3155 C   0  0  0  0  0  0  0  0  0  0  0  0
  -48.7559   57.7706   64.6641 O   0  0  0  0  0  0  0  0  0  0  0  0
  -50.1764   60.0578   67.1899 H   0  0  0  0  0  0  0  0  0  0  0  0
  -48.3968   57.1895   64.0227 H   0  0  0  0  0  0  0  0  0  0  0  0
 12 13  1  0  0  0
 13 11  1  0  0  0
 11  9  1  0  0  0
  9 10  2  0  0  0
 10  8  1  0  0  0
  8  6  1  0  0  0
  6  7  2  0  0  0
  7  5  1  0  0  0
  5  4  1  0  0  0
  4  3  1  0  0  0
  3  2  1  0  0  0
  2  1  1  0  0  0
  1 14  1  0  0  0
 14 15  1  0  0  0
 15 16  1  0  0  0
 16 17  2  0  0  0
 16 22  1  0  0  0
 17 18  1  0  0  0
 18 19  2  0  0  0
 19 20  1  0  0  0
 20 22  2  0  0  0
 20 21  1  0  0  0
 22 23  1  0  0  0
 21 24  1  0  0  0
 23 25  1  0  0  0
M  END
> <minimizedAffinity>
-8.60887

$$$$



 25 25  0  0  0  0  0  0  0  0999 V2000
  -51.7394   60.2072   63.6294 C   0  0  0  0  0  0  0  0  0  0  0  0
  -51.1809   59.5291   62.3764 C   0  0  0  0  0  0  0  0  0  0  0  0
  -49.6739   59.7764   62.2924 C   0  0  0  0  0  0  0  0  0  0  0  0
  -48.9861   58.5388   61.7120 C   0  0  0  0  0  0  0  0  0  0  0  0
  -50.0375   57.6122   61.0967 C   0  0  0  0  0  0  0  0  0  0  0  0
  -49.1504   56.2676   59.2617 C   0  0  0  0  0  0  0  0  0  0  0  0
  -49.3625   56.3803   60.5497 C   0  0  0  0  0  0  0  0  0  0  0  0
  -49.4243   57.4329   58.3480 C   0  0  0  0  0  0  0  0  0  0  0  0
  -47.7189   57.7442   56.6283 C   0  0  0  0  0  0  0  0  0  0  0  0
  -48.8327   57.1561   56.9901 C   0  0  0  0  0  0  0  0  0  0  0  0
  -46.9396   58.5606   57.6268 C   0  0  0  0  0  0  0  0  0  0  0  0
  -45.8008   57.8413   59.7313 C   0  0  0  0  0  0  0  0  0  0  0  0
  -45.8058   57.7123   58.2066 C   0  0  0  0  0  0  0  0  0  0  0  0
  -50.5934   60.5230   64.5927 C   0  0  0  0  0  0  0  0  0  0  0  0
  -50.6806   59.5998   65.8100 C   0  0  0  0  0  0  0  0  0  0  0  0
  -49.3947   58.8266   65.9474 C   0  0  0  0  0  0  0  0  0  0  0  0
  -49.2529   57.6024   65.3201 C   0  0  0  0  0  0  0  0  0  0  0  0
  -48.0742   56.8915   65.4437 C   0  0  0  0  0  0  0  0  0  0  0  0
  -47.0316   57.4006   66.1965 C   0  0  0  0  0  0  0  0  0  0  0  0
  -47.1669   58.6270   66.8264 C   0  0  0  0  0  0  0  0  0  0  0  0
  -46.1415   59.1303   67.5658 O   0  0  0  0  0  0  0  0  0  0  0  0
  -48.3523   59.3456   66.6976 C   0  0  0  0  0  0  0  0  0  0  0  0
  -48.4891   60.5496   67.3149 O   0  0  0  0  0  0  0  0  0  0  0  0
  -45.3440   58.6459   67.6518 H   0  0  0  0  0  0  0  0  0  0  0  0
  -49.2872   61.0327   67.2278 H   0  0  0  0  0  0  0  0  0  0  0  0
 12 13  1  0  0  0
 13 11  1  0  0  0
 11  9  1  0  0  0
  9 10  2  0  0  0
 10  8  1  0  0  0
  8  6  1  0  0  0
  6  7  2  0  0  0
  7  5  1  0  0  0
  5  4  1  0  0  0
  4  3  1  0  0  0
  3  2  1  0  0  0
  2  1  1  0  0  0
  1 14  1  0  0  0
 14 15  1  0  0  0
 15 16  1  0  0  0
 16 17  2  0  0  0
 16 22  1  0  0  0
 17 18  1  0  0  0
 18 19  2  0  0  0
 19 20  1  0  0  0
 20 22  2  0  0  0
 20 21  1  0  0  0
 22 23  1  0  0  0
 21 24  1  0  0  0
 23 25  1  0  0  0
M  END
> <minimizedAffinity>
-8.30998

$$$$



 25 25  0  0  0  0  0  0  0  0999 V2000
  -47.2110   57.1150   56.3933 C   0  0  0  0  0  0  0  0  0  0  0  0
  -47.2643   55.7010   56.9757 C   0  0  0  0  0  0  0  0  0  0  0  0
  -48.4263   55.6012   57.9653 C   0  0  0  0  0  0  0  0  0  0  0  0
  -47.8770   55.5481   59.3925 C   0  0  0  0  0  0  0  0  0  0  0  0
  -48.8441   56.2639   60.3385 C   0  0  0  0  0  0  0  0  0  0  0  0
  -50.7424   57.7864   60.1379 C   0  0  0  0  0  0  0  0  0  0  0  0
  -49.8599   57.0314   59.5315 C   0  0  0  0  0  0  0  0  0  0  0  0
  -50.6395   58.0226   61.6217 C   0  0  0  0  0  0  0  0  0  0  0  0
  -49.1259   59.5243   62.8120 C   0  0  0  0  0  0  0  0  0  0  0  0
  -50.0284   59.3768   61.8733 C   0  0  0  0  0  0  0  0  0  0  0  0
  -48.5739   58.3154   63.5226 C   0  0  0  0  0  0  0  0  0  0  0  0
  -49.7609   57.9589   65.6922 C   0  0  0  0  0  0  0  0  0  0  0  0
  -48.5316   58.5831   65.0285 C   0  0  0  0  0  0  0  0  0  0  0  0
  -46.3748   58.0126   57.3077 C   0  0  0  0  0  0  0  0  0  0  0  0
  -47.2771   59.0674   57.9518 C   0  0  0  0  0  0  0  0  0  0  0  0
  -46.7157   59.4566   59.2947 C   0  0  0  0  0  0  0  0  0  0  0  0
  -45.9791   58.5442   60.0276 C   0  0  0  0  0  0  0  0  0  0  0  0
  -45.4621   58.8988   61.2593 C   0  0  0  0  0  0  0  0  0  0  0  0
  -45.6803   60.1676   61.7651 C   0  0  0  0  0  0  0  0  0  0  0  0
  -46.4163   61.0866   61.0352 C   0  0  0  0  0  0  0  0  0  0  0  0
  -46.6303   62.3358   61.5303 O   0  0  0  0  0  0  0  0  0  0  0  0
  -46.9326   60.7311   59.7922 C   0  0  0  0  0  0  0  0  0  0  0  0
  -47.6561   61.6304   59.0729 O   0  0  0  0  0  0  0  0  0  0  0  0
  -46.2824   62.5741   62.3670 H   0  0  0  0  0  0  0  0  0  0  0  0
  -48.0033   61.3904   58.2364 H   0  0  0  0  0  0  0  0  0  0  0  0
 12 13  1  0  0  0
 13 11  1  0  0  0
 11  9  1  0  0  0
  9 10  2  0  0  0
 10  8  1  0  0  0
  8  6  1  0  0  0
  6  7  2  0  0  0
  7  5  1  0  0  0
  5  4  1  0  0  0
  4  3  1  0  0  0
  3  2  1  0  0  0
  2  1  1  0  0  0
  1 14  1  0  0  0
 14 15  1  0  0  0
 15 16  1  0  0  0
 16 17  2  0  0  0
 16 22  1  0  0  0
 17 18  1  0  0  0
 18 19  2  0  0  0
 19 20  1  0  0  0
 20 22  2  0  0  0
 20 21  1  0  0  0
 22 23  1  0  0  0
 21 24  1  0  0  0
 23 25  1  0  0  0
M  END
> <minimizedAffinity>
-8.28307

$$$$



 25 25  0  0  0  0  0  0  0  0999 V2000
  -47.7907   55.7848   58.4346 C   0  0  0  0  0  0  0  0  0  0  0  0
  -48.8020   55.8747   59.5794 C   0  0  0  0  0  0  0  0  0  0  0  0
  -49.6442   57.1411   59.4167 C   0  0  0  0  0  0  0  0  0  0  0  0
  -50.7011   57.1955   60.5221 C   0  0  0  0  0  0  0  0  0  0  0  0
  -50.0724   57.7510   61.8023 C   0  0  0  0  0  0  0  0  0  0  0  0
  -50.4061   60.1327   62.2243 C   0  0  0  0  0  0  0  0  0  0  0  0
  -49.7240   59.2037   61.6010 C   0  0  0  0  0  0  0  0  0  0  0  0
  -51.4226   59.7494   63.2672 C   0  0  0  0  0  0  0  0  0  0  0  0
  -50.6135   59.7532   65.5712 C   0  0  0  0  0  0  0  0  0  0  0  0
  -51.0954   60.4412   64.5652 C   0  0  0  0  0  0  0  0  0  0  0  0
  -50.2256   58.3097   65.3791 C   0  0  0  0  0  0  0  0  0  0  0  0
  -47.8206   58.1391   64.7235 C   0  0  0  0  0  0  0  0  0  0  0  0
  -48.8024   58.0900   65.8961 C   0  0  0  0  0  0  0  0  0  0  0  0
  -47.7323   57.1249   57.6986 C   0  0  0  0  0  0  0  0  0  0  0  0
  -46.3310   57.7236   57.8384 C   0  0  0  0  0  0  0  0  0  0  0  0
  -46.2333   58.4754   59.1405 C   0  0  0  0  0  0  0  0  0  0  0  0
  -45.6605   57.8734   60.2458 C   0  0  0  0  0  0  0  0  0  0  0  0
  -45.5687   58.5609   61.4411 C   0  0  0  0  0  0  0  0  0  0  0  0
  -46.0506   59.8538   61.5377 C   0  0  0  0  0  0  0  0  0  0  0  0
  -46.6244   60.4630   60.4337 C   0  0  0  0  0  0  0  0  0  0  0  0
  -47.0972   61.7355   60.5262 O   0  0  0  0  0  0  0  0  0  0  0  0
  -46.7121   59.7723   59.2281 C   0  0  0  0  0  0  0  0  0  0  0  0
  -47.2752   60.3667   58.1423 O   0  0  0  0  0  0  0  0  0  0  0  0
  -47.0377   62.1995   61.3381 H   0  0  0  0  0  0  0  0  0  0  0  0
  -47.3339   59.9012   57.3312 H   0  0  0  0  0  0  0  0  0  0  0  0
 12 13  1  0  0  0
 13 11  1  0  0  0
 11  9  1  0  0  0
  9 10  2  0  0  0
 10  8  1  0  0  0
  8  6  1  0  0  0
  6  7  2  0  0  0
  7  5  1  0  0  0
  5  4  1  0  0  0
  4  3  1  0  0  0
  3  2  1  0  0  0
  2  1  1  0  0  0
  1 14  1  0  0  0
 14 15  1  0  0  0
 15 16  1  0  0  0
 16 17  2  0  0  0
 16 22  1  0  0  0
 17 18  1  0  0  0
 18 19  2  0  0  0
 19 20  1  0  0  0
 20 22  2  0  0  0
 20 21  1  0  0  0
 22 23  1  0  0  0
 21 24  1  0  0  0
 23 25  1  0  0  0
M  END
> <minimizedAffinity>
-8.27947

$$$$



 25 25  0  0  0  0  0  0  0  0999 V2000
  -50.4292   57.5237   61.1777 C   0  0  0  0  0  0  0  0  0  0  0  0
  -50.5463   58.0245   59.7365 C   0  0  0  0  0  0  0  0  0  0  0  0
  -49.6008   57.2228   58.8404 C   0  0  0  0  0  0  0  0  0  0  0  0
  -49.0159   56.0529   59.6346 C   0  0  0  0  0  0  0  0  0  0  0  0
  -47.5970   55.7598   59.1412 C   0  0  0  0  0  0  0  0  0  0  0  0
  -47.0132   56.2889   56.8301 C   0  0  0  0  0  0  0  0  0  0  0  0
  -47.6280   55.4825   57.6598 C   0  0  0  0  0  0  0  0  0  0  0  0
  -46.1376   57.3928   57.3617 C   0  0  0  0  0  0  0  0  0  0  0  0
  -47.0509   59.5427   58.0738 C   0  0  0  0  0  0  0  0  0  0  0  0
  -46.7854   58.7248   57.0848 C   0  0  0  0  0  0  0  0  0  0  0  0
  -46.5565   59.2303   59.4627 C   0  0  0  0  0  0  0  0  0  0  0  0
  -48.1403   61.0746   60.0396 C   0  0  0  0  0  0  0  0  0  0  0  0
  -46.7885   60.4392   60.3715 C   0  0  0  0  0  0  0  0  0  0  0  0
  -50.0882   58.6962   62.0995 C   0  0  0  0  0  0  0  0  0  0  0  0
  -49.9856   58.1981   63.5427 C   0  0  0  0  0  0  0  0  0  0  0  0
  -48.8999   58.9572   64.2604 C   0  0  0  0  0  0  0  0  0  0  0  0
  -48.2660   60.0152   63.6351 C   0  0  0  0  0  0  0  0  0  0  0  0
  -47.2704   60.7140   64.2913 C   0  0  0  0  0  0  0  0  0  0  0  0
  -46.9027   60.3572   65.5761 C   0  0  0  0  0  0  0  0  0  0  0  0
  -47.5348   59.2991   66.2085 C   0  0  0  0  0  0  0  0  0  0  0  0
  -47.1757   58.9481   67.4732 O   0  0  0  0  0  0  0  0  0  0  0  0
  -48.5413   58.5987   65.5494 C   0  0  0  0  0  0  0  0  0  0  0  0
  -49.1637   57.5590   66.1667 O   0  0  0  0  0  0  0  0  0  0  0  0
  -46.4982   59.4202   67.9159 H   0  0  0  0  0  0  0  0  0  0  0  0
  -49.8411   57.0880   65.7225 H   0  0  0  0  0  0  0  0  0  0  0  0
 12 13  1  0  0  0
 13 11  1  0  0  0
 11  9  1  0  0  0
  9 10  2  0  0  0
 10  8  1  0  0  0
  8  6  1  0  0  0
  6  7  2  0  0  0
  7  5  1  0  0  0
  5  4  1  0  0  0
  4  3  1  0  0  0
  3  2  1  0  0  0
  2  1  1  0  0  0
  1 14  1  0  0  0
 14 15  1  0  0  0
 15 16  1  0  0  0
 16 17  2  0  0  0
 16 22  1  0  0  0
 17 18  1  0  0  0
 18 19  2  0  0  0
 19 20  1  0  0  0
 20 22  2  0  0  0
 20 21  1  0  0  0
 22 23  1  0  0  0
 21 24  1  0  0  0
 23 25  1  0  0  0
M  END
> <minimizedAffinity>
-8.19404

$$$$



 25 25  0  0  0  0  0  0  0  0999 V2000
  -50.8474   58.3558   61.6549 C   0  0  0  0  0  0  0  0  0  0  0  0
  -50.5301   59.6711   62.3696 C   0  0  0  0  0  0  0  0  0  0  0  0
  -51.7756   60.1620   63.1094 C   0  0  0  0  0  0  0  0  0  0  0  0
  -51.4166   60.4661   64.5655 C   0  0  0  0  0  0  0  0  0  0  0  0
  -49.9878   59.9955   64.8477 C   0  0  0  0  0  0  0  0  0  0  0  0
  -49.3406   57.8871   65.8955 C   0  0  0  0  0  0  0  0  0  0  0  0
  -49.9990   59.0157   65.9932 C   0  0  0  0  0  0  0  0  0  0  0  0
  -48.4382   57.6408   64.7152 C   0  0  0  0  0  0  0  0  0  0  0  0
  -46.1469   58.3313   64.2291 C   0  0  0  0  0  0  0  0  0  0  0  0
  -47.0078   57.8944   65.1154 C   0  0  0  0  0  0  0  0  0  0  0  0
  -46.6202   58.7430   62.8589 C   0  0  0  0  0  0  0  0  0  0  0  0
  -45.2739   58.0130   60.8847 C   0  0  0  0  0  0  0  0  0  0  0  0
  -45.4126   59.0732   61.9792 C   0  0  0  0  0  0  0  0  0  0  0  0
  -49.5429   57.6350   61.3092 C   0  0  0  0  0  0  0  0  0  0  0  0
  -49.7096   56.8838   59.9865 C   0  0  0  0  0  0  0  0  0  0  0  0
  -48.6726   57.3613   59.0032 C   0  0  0  0  0  0  0  0  0  0  0  0
  -48.3191   58.6976   58.9646 C   0  0  0  0  0  0  0  0  0  0  0  0
  -47.3675   59.1382   58.0644 C   0  0  0  0  0  0  0  0  0  0  0  0
  -46.7655   58.2447   57.1970 C   0  0  0  0  0  0  0  0  0  0  0  0
  -47.1143   56.9045   57.2315 C   0  0  0  0  0  0  0  0  0  0  0  0
  -46.5217   56.0238   56.3803 O   0  0  0  0  0  0  0  0  0  0  0  0
  -48.0690   56.4598   58.1419 C   0  0  0  0  0  0  0  0  0  0  0  0
  -48.4146   55.1450   58.1785 O   0  0  0  0  0  0  0  0  0  0  0  0
  -45.8793   56.3241   55.7679 H   0  0  0  0  0  0  0  0  0  0  0  0
  -49.0572   54.8463   58.7915 H   0  0  0  0  0  0  0  0  0  0  0  0
 12 13  1  0  0  0
 13 11  1  0  0  0
 11  9  1  0  0  0
  9 10  2  0  0  0
 10  8  1  0  0  0
  8  6  1  0  0  0
  6  7  2  0  0  0
  7  5  1  0  0  0
  5  4  1  0  0  0
  4  3  1  0  0  0
  3  2  1  0  0  0
  2  1  1  0  0  0
  1 14  1  0  0  0
 14 15  1  0  0  0
 15 16  1  0  0  0
 16 17  2  0  0  0
 16 22  1  0  0  0
 17 18  1  0  0  0
 18 19  2  0  0  0
 19 20  1  0  0  0
 20 22  2  0  0  0
 20 21  1  0  0  0
 22 23  1  0  0  0
 21 24  1  0  0  0
 23 25  1  0  0  0
M  END
> <minimizedAffinity>
-8.15300

$$$$



 25 25  0  0  0  0  0  0  0  0999 V2000
  -51.1896   60.2809   64.7762 C   0  0  0  0  0  0  0  0  0  0  0  0
  -51.6655   60.2015   63.3240 C   0  0  0  0  0  0  0  0  0  0  0  0
  -50.6886   59.3475   62.5140 C   0  0  0  0  0  0  0  0  0  0  0  0
  -50.0188   60.2145   61.4457 C   0  0  0  0  0  0  0  0  0  0  0  0
  -49.1494   59.3337   60.5451 C   0  0  0  0  0  0  0  0  0  0  0  0
  -49.7337   57.3036   59.3206 C   0  0  0  0  0  0  0  0  0  0  0  0
  -50.0318   58.5461   59.6105 C   0  0  0  0  0  0  0  0  0  0  0  0
  -48.6120   56.6087   60.0465 C   0  0  0  0  0  0  0  0  0  0  0  0
  -46.9633   55.8901   58.3948 C   0  0  0  0  0  0  0  0  0  0  0  0
  -47.9929   55.5750   59.1417 C   0  0  0  0  0  0  0  0  0  0  0  0
  -46.2915   57.2284   58.5642 C   0  0  0  0  0  0  0  0  0  0  0  0
  -46.9122   59.5133   57.7662 C   0  0  0  0  0  0  0  0  0  0  0  0
  -46.5536   58.0916   57.3284 C   0  0  0  0  0  0  0  0  0  0  0  0
  -50.1163   59.2183   65.0205 C   0  0  0  0  0  0  0  0  0  0  0  0
  -49.1837   59.6828   66.1413 C   0  0  0  0  0  0  0  0  0  0  0  0
  -47.8226   59.9842   65.5698 C   0  0  0  0  0  0  0  0  0  0  0  0
  -47.7107   60.6198   64.3468 C   0  0  0  0  0  0  0  0  0  0  0  0
  -46.4635   60.8983   63.8206 C   0  0  0  0  0  0  0  0  0  0  0  0
  -45.3214   60.5412   64.5144 C   0  0  0  0  0  0  0  0  0  0  0  0
  -45.4266   59.9054   65.7406 C   0  0  0  0  0  0  0  0  0  0  0  0
  -44.3042   59.5552   66.4254 O   0  0  0  0  0  0  0  0  0  0  0  0
  -46.6830   59.6296   66.2731 C   0  0  0  0  0  0  0  0  0  0  0  0
  -46.7904   59.0050   67.4763 O   0  0  0  0  0  0  0  0  0  0  0  0
  -43.4590   59.7413   66.0662 H   0  0  0  0  0  0  0  0  0  0  0  0
  -47.6364   58.8197   67.8341 H   0  0  0  0  0  0  0  0  0  0  0  0
 12 13  1  0  0  0
 13 11  1  0  0  0
 11  9  1  0  0  0
  9 10  2  0  0  0
 10  8  1  0  0  0
  8  6  1  0  0  0
  6  7  2  0  0  0
  7  5  1  0  0  0
  5  4  1  0  0  0
  4  3  1  0  0  0
  3  2  1  0  0  0
  2  1  1  0  0  0
  1 14  1  0  0  0
 14 15  1  0  0  0
 15 16  1  0  0  0
 16 17  2  0  0  0
 16 22  1  0  0  0
 17 18  1  0  0  0
 18 19  2  0  0  0
 19 20  1  0  0  0
 20 22  2  0  0  0
 20 21  1  0  0  0
 22 23  1  0  0  0
 21 24  1  0  0  0
 23 25  1  0  0  0
M  END
> <minimizedAffinity>
-8.10693

$$$$



 25 25  0  0  0  0  0  0  0  0999 V2000
  -51.2297   60.3509   64.6342 C   0  0  0  0  0  0  0  0  0  0  0  0
  -51.5775   60.1232   63.1615 C   0  0  0  0  0  0  0  0  0  0  0  0
  -50.6721   59.0324   62.5872 C   0  0  0  0  0  0  0  0  0  0  0  0
  -50.1909   59.4499   61.1959 C   0  0  0  0  0  0  0  0  0  0  0  0
  -48.7316   59.9045   61.2757 C   0  0  0  0  0  0  0  0  0  0  0  0
  -47.5674   60.7453   59.3010 C   0  0  0  0  0  0  0  0  0  0  0  0
  -48.4742   60.9530   60.2237 C   0  0  0  0  0  0  0  0  0  0  0  0
  -46.9029   59.3988   59.1869 C   0  0  0  0  0  0  0  0  0  0  0  0
  -47.6486   58.1156   57.2477 C   0  0  0  0  0  0  0  0  0  0  0  0
  -46.8166   59.0028   57.7356 C   0  0  0  0  0  0  0  0  0  0  0  0
  -48.7973   57.6189   58.0872 C   0  0  0  0  0  0  0  0  0  0  0  0
  -49.1342   56.0832   60.0291 C   0  0  0  0  0  0  0  0  0  0  0  0
  -48.4479   56.2487   58.6716 C   0  0  0  0  0  0  0  0  0  0  0  0
  -50.2424   59.2778   65.0974 C   0  0  0  0  0  0  0  0  0  0  0  0
  -49.3590   59.8434   66.2115 C   0  0  0  0  0  0  0  0  0  0  0  0
  -47.9644   60.0622   65.6848 C   0  0  0  0  0  0  0  0  0  0  0  0
  -47.7704   60.7716   64.5137 C   0  0  0  0  0  0  0  0  0  0  0  0
  -46.4922   60.9746   64.0287 C   0  0  0  0  0  0  0  0  0  0  0  0
  -45.4014   60.4680   64.7119 C   0  0  0  0  0  0  0  0  0  0  0  0
  -45.5891   59.7577   65.8863 C   0  0  0  0  0  0  0  0  0  0  0  0
  -44.5170   59.2603   66.5607 O   0  0  0  0  0  0  0  0  0  0  0  0
  -46.8762   59.5577   66.3776 C   0  0  0  0  0  0  0  0  0  0  0  0
  -47.0645   58.8603   67.5298 O   0  0  0  0  0  0  0  0  0  0  0  0
  -43.6511   59.3954   66.2292 H   0  0  0  0  0  0  0  0  0  0  0  0
  -47.9310   58.7261   67.8599 H   0  0  0  0  0  0  0  0  0  0  0  0
 12 13  1  0  0  0
 13 11  1  0  0  0
 11  9  1  0  0  0
  9 10  2  0  0  0
 10  8  1  0  0  0
  8  6  1  0  0  0
  6  7  2  0  0  0
  7  5  1  0  0  0
  5  4  1  0  0  0
  4  3  1  0  0  0
  3  2  1  0  0  0
  2  1  1  0  0  0
  1 14  1  0  0  0
 14 15  1  0  0  0
 15 16  1  0  0  0
 16 17  2  0  0  0
 16 22  1  0  0  0
 17 18  1  0  0  0
 18 19  2  0  0  0
 19 20  1  0  0  0
 20 22  2  0  0  0
 20 21  1  0  0  0
 22 23  1  0  0  0
 21 24  1  0  0  0
 23 25  1  0  0  0
M  END
> <minimizedAffinity>
-8.06567

$$$$
