


 25 25  0  0  0  0  0  0  0  0999 V2000
  -49.6591   59.8680   60.8492 C   0  0  0  0  0  0  0  0  0  0  0  0
  -49.6296   59.8391   62.3789 C   0  0  0  0  0  0  0  0  0  0  0  0
  -50.9240   59.2138   62.9015 C   0  0  0  0  0  0  0  0  0  0  0  0
  -51.5938   60.1760   63.8849 C   0  0  0  0  0  0  0  0  0  0  0  0
  -50.6996   60.3533   65.1144 C   0  0  0  0  0  0  0  0  0  0  0  0
  -49.3955   58.5435   66.1073 C   0  0  0  0  0  0  0  0  0  0  0  0
  -50.5792   59.0382   65.8414 C   0  0  0  0  0  0  0  0  0  0  0  0
  -48.1595   59.3616   65.8408 C   0  0  0  0  0  0  0  0  0  0  0  0
  -46.1985   58.1991   64.9656 C   0  0  0  0  0  0  0  0  0  0  0  0
  -47.3713   58.7306   64.7222 C   0  0  0  0  0  0  0  0  0  0  0  0
  -45.7129   58.0642   66.3859 C   0  0  0  0  0  0  0  0  0  0  0  0
  -43.7294   57.5895   64.9426 C   0  0  0  0  0  0  0  0  0  0  0  0
  -44.2310   57.6833   66.3851 C   0  0  0  0  0  0  0  0  0  0  0  0
  -49.7216   58.4365   60.3127 C   0  0  0  0  0  0  0  0  0  0  0  0
  -48.3575   57.7655   60.4880 C   0  0  0  0  0  0  0  0  0  0  0  0
  -47.7785   57.4431   59.1349 C   0  0  0  0  0  0  0  0  0  0  0  0
  -47.1276   58.4238   58.4091 C   0  0  0  0  0  0  0  0  0  0  0  0
  -46.5947   58.1307   57.1681 C   0  0  0  0  0  0  0  0  0  0  0  0
  -46.7112   56.8552   56.6458 C   0  0  0  0  0  0  0  0  0  0  0  0
  -47.3610   55.8679   57.3684 C   0  0  0  0  0  0  0  0  0  0  0  0
  -47.4748   54.6121   56.8570 O   0  0  0  0  0  0  0  0  0  0  0  0
  -47.8932   56.1619   58.6208 C   0  0  0  0  0  0  0  0  0  0  0  0
  -48.5322   55.1955   59.3330 O   0  0  0  0  0  0  0  0  0  0  0  0
  -47.1163   54.4153   56.0140 H   0  0  0  0  0  0  0  0  0  0  0  0
  -48.8901   55.3941   60.1758 H   0  0  0  0  0  0  0  0  0  0  0  0
 12 13  1  0  0  0
 13 11  1  0  0  0
 11  9  1  0  0  0
  9 10  2  0  0  0
 10  8  1  0  0  0
  8  6  1  0  0  0
  6  7  2  0  0  0
  7  5  1  0  0  0
  5  4  1  0  0  0
  4  3  1  0  0  0
  3  2  1  0  0  0
  2  1  1  0  0  0
  1 14  1  0  0  0
 14 15  1  0  0  0
 15 16  1  0  0  0
 16 17  2  0  0  0
 16 22  1  0  0  0
 17 18  1  0  0  0
 18 19  2  0  0  0
 19 20  1  0  0  0
 20 22  2  0  0  0
 20 21  1  0  0  0
 22 23  1  0  0  0
 21 24  1  0  0  0
 23 25  1  0  0  0
M  END
> <minimizedAffinity>
-9.86222

$$$$



 25 25  0  0  0  0  0  0  0  0999 V2000
  -46.0859   57.9288   65.6276 C   0  0  0  0  0  0  0  0  0  0  0  0
  -47.4602   58.3834   65.1314 C   0  0  0  0  0  0  0  0  0  0  0  0
  -48.5292   57.4094   65.6295 C   0  0  0  0  0  0  0  0  0  0  0  0
  -49.7971   58.1860   65.9916 C   0  0  0  0  0  0  0  0  0  0  0  0
  -49.7243   59.5912   65.3892 C   0  0  0  0  0  0  0  0  0  0  0  0
  -51.5250   60.2354   63.8713 C   0  0  0  0  0  0  0  0  0  0  0  0
  -51.1188   60.0898   65.1084 C   0  0  0  0  0  0  0  0  0  0  0  0
  -50.6665   59.7482   62.7339 C   0  0  0  0  0  0  0  0  0  0  0  0
  -50.2336   57.5901   61.6765 C   0  0  0  0  0  0  0  0  0  0  0  0
  -51.0456   58.3310   62.3901 C   0  0  0  0  0  0  0  0  0  0  0  0
  -48.8517   58.0917   61.3452 C   0  0  0  0  0  0  0  0  0  0  0  0
  -47.5693   57.5724   59.2647 C   0  0  0  0  0  0  0  0  0  0  0  0
  -48.7509   58.3552   59.8414 C   0  0  0  0  0  0  0  0  0  0  0  0
  -45.0569   58.0993   64.5083 C   0  0  0  0  0  0  0  0  0  0  0  0
  -43.6511   58.1496   65.1104 C   0  0  0  0  0  0  0  0  0  0  0  0
  -42.6521   57.6560   64.0963 C   0  0  0  0  0  0  0  0  0  0  0  0
  -41.9949   58.5560   63.2775 C   0  0  0  0  0  0  0  0  0  0  0  0
  -41.0773   58.1061   62.3471 C   0  0  0  0  0  0  0  0  0  0  0  0
  -40.8132   56.7535   62.2297 C   0  0  0  0  0  0  0  0  0  0  0  0
  -41.4673   55.8469   63.0478 C   0  0  0  0  0  0  0  0  0  0  0  0
  -41.2073   54.5161   62.9351 O   0  0  0  0  0  0  0  0  0  0  0  0
  -42.3877   56.3005   63.9887 C   0  0  0  0  0  0  0  0  0  0  0  0
  -43.0322   55.4136   64.7932 O   0  0  0  0  0  0  0  0  0  0  0  0
  -40.5877   54.2118   62.3015 H   0  0  0  0  0  0  0  0  0  0  0  0
  -43.6516   55.7196   65.4263 H   0  0  0  0  0  0  0  0  0  0  0  0
 12 13  1  0  0  0
 13 11  1  0  0  0
 11  9  1  0  0  0
  9 10  2  0  0  0
 10  8  1  0  0  0
  8  6  1  0  0  0
  6  7  2  0  0  0
  7  5  1  0  0  0
  5  4  1  0  0  0
  4  3  1  0  0  0
  3  2  1  0  0  0
  2  1  1  0  0  0
  1 14  1  0  0  0
 14 15  1  0  0  0
 15 16  1  0  0  0
 16 17  2  0  0  0
 16 22  1  0  0  0
 17 18  1  0  0  0
 18 19  2  0  0  0
 19 20  1  0  0  0
 20 22  2  0  0  0
 20 21  1  0  0  0
 22 23  1  0  0  0
 21 24  1  0  0  0
 23 25  1  0  0  0
M  END
> <minimizedAffinity>
-9.08627

$$$$



 25 25  0  0  0  0  0  0  0  0999 V2000
  -34.7648   57.8934   63.2758 C   0  0  0  0  0  0  0  0  0  0  0  0
  -33.9970   58.2358   61.9972 C   0  0  0  0  0  0  0  0  0  0  0  0
  -32.6048   57.6049   62.0549 C   0  0  0  0  0  0  0  0  0  0  0  0
  -31.8988   58.0452   63.3391 C   0  0  0  0  0  0  0  0  0  0  0  0
  -30.4238   57.6416   63.2746 C   0  0  0  0  0  0  0  0  0  0  0  0
  -29.5132   56.2521   65.0640 C   0  0  0  0  0  0  0  0  0  0  0  0
  -29.8962   57.4423   64.6726 C   0  0  0  0  0  0  0  0  0  0  0  0
  -29.4394   55.1204   64.0732 C   0  0  0  0  0  0  0  0  0  0  0  0
  -27.4265   54.4758   62.8503 C   0  0  0  0  0  0  0  0  0  0  0  0
  -28.0264   54.6010   64.0086 C   0  0  0  0  0  0  0  0  0  0  0  0
  -28.0808   55.0091   61.6018 C   0  0  0  0  0  0  0  0  0  0  0  0
  -28.1123   57.3658   60.7727 C   0  0  0  0  0  0  0  0  0  0  0  0
  -27.2297   56.1411   61.0228 C   0  0  0  0  0  0  0  0  0  0  0  0
  -36.2599   57.8012   62.9643 C   0  0  0  0  0  0  0  0  0  0  0  0
  -36.4706   57.8624   61.4499 C   0  0  0  0  0  0  0  0  0  0  0  0
  -37.9278   58.1066   61.1548 C   0  0  0  0  0  0  0  0  0  0  0  0
  -38.8957   57.3163   61.7469 C   0  0  0  0  0  0  0  0  0  0  0  0
  -40.2332   57.5386   61.4787 C   0  0  0  0  0  0  0  0  0  0  0  0
  -40.6094   58.5520   60.6157 C   0  0  0  0  0  0  0  0  0  0  0  0
  -39.6447   59.3481   60.0204 C   0  0  0  0  0  0  0  0  0  0  0  0
  -40.0131   60.3467   59.1727 O   0  0  0  0  0  0  0  0  0  0  0  0
  -38.2978   59.1275   60.2946 C   0  0  0  0  0  0  0  0  0  0  0  0
  -37.3477   59.9066   59.7117 O   0  0  0  0  0  0  0  0  0  0  0  0
  -40.9199   60.4944   58.9888 H   0  0  0  0  0  0  0  0  0  0  0  0
  -36.4413   59.7575   59.8967 H   0  0  0  0  0  0  0  0  0  0  0  0
 12 13  1  0  0  0
 13 11  1  0  0  0
 11  9  1  0  0  0
  9 10  2  0  0  0
 10  8  1  0  0  0
  8  6  1  0  0  0
  6  7  2  0  0  0
  7  5  1  0  0  0
  5  4  1  0  0  0
  4  3  1  0  0  0
  3  2  1  0  0  0
  2  1  1  0  0  0
  1 14  1  0  0  0
 14 15  1  0  0  0
 15 16  1  0  0  0
 16 17  2  0  0  0
 16 22  1  0  0  0
 17 18  1  0  0  0
 18 19  2  0  0  0
 19 20  1  0  0  0
 20 22  2  0  0  0
 20 21  1  0  0  0
 22 23  1  0  0  0
 21 24  1  0  0  0
 23 25  1  0  0  0
M  END
> <minimizedAffinity>
-9.01599

$$$$



 25 25  0  0  0  0  0  0  0  0999 V2000
  -34.1293   57.0466   62.2341 C   0  0  0  0  0  0  0  0  0  0  0  0
  -33.4589   58.4047   62.4528 C   0  0  0  0  0  0  0  0  0  0  0  0
  -32.1264   58.2042   63.1765 C   0  0  0  0  0  0  0  0  0  0  0  0
  -31.0380   59.0196   62.4750 C   0  0  0  0  0  0  0  0  0  0  0  0
  -29.6741   58.3714   62.7246 C   0  0  0  0  0  0  0  0  0  0  0  0
  -28.3520   57.5189   60.8571 C   0  0  0  0  0  0  0  0  0  0  0  0
  -28.7985   58.5619   61.5124 C   0  0  0  0  0  0  0  0  0  0  0  0
  -28.8462   56.1402   61.2081 C   0  0  0  0  0  0  0  0  0  0  0  0
  -27.6952   54.5987   62.7120 C   0  0  0  0  0  0  0  0  0  0  0  0
  -27.6765   55.2688   61.5859 C   0  0  0  0  0  0  0  0  0  0  0  0
  -28.9502   54.5619   63.5456 C   0  0  0  0  0  0  0  0  0  0  0  0
  -29.5822   56.0970   65.4129 C   0  0  0  0  0  0  0  0  0  0  0  0
  -28.6239   54.9857   64.9791 C   0  0  0  0  0  0  0  0  0  0  0  0
  -35.6486   57.2254   62.2091 C   0  0  0  0  0  0  0  0  0  0  0  0
  -36.0291   58.2059   61.0977 C   0  0  0  0  0  0  0  0  0  0  0  0
  -37.5298   58.2829   60.9874 C   0  0  0  0  0  0  0  0  0  0  0  0
  -38.3236   57.4495   61.7538 C   0  0  0  0  0  0  0  0  0  0  0  0
  -39.7004   57.5186   61.6555 C   0  0  0  0  0  0  0  0  0  0  0  0
  -40.2905   58.4208   60.7889 C   0  0  0  0  0  0  0  0  0  0  0  0
  -39.5008   59.2594   60.0194 C   0  0  0  0  0  0  0  0  0  0  0  0
  -40.0796   60.1490   59.1678 O   0  0  0  0  0  0  0  0  0  0  0  0
  -38.1141   59.1935   60.1223 C   0  0  0  0  0  0  0  0  0  0  0  0
  -37.3355   60.0147   59.3681 O   0  0  0  0  0  0  0  0  0  0  0  0
  -41.0131   60.1926   59.0993 H   0  0  0  0  0  0  0  0  0  0  0  0
  -36.4022   59.9698   59.4379 H   0  0  0  0  0  0  0  0  0  0  0  0
 12 13  1  0  0  0
 13 11  1  0  0  0
 11  9  1  0  0  0
  9 10  2  0  0  0
 10  8  1  0  0  0
  8  6  1  0  0  0
  6  7  2  0  0  0
  7  5  1  0  0  0
  5  4  1  0  0  0
  4  3  1  0  0  0
  3  2  1  0  0  0
  2  1  1  0  0  0
  1 14  1  0  0  0
 14 15  1  0  0  0
 15 16  1  0  0  0
 16 17  2  0  0  0
 16 22  1  0  0  0
 17 18  1  0  0  0
 18 19  2  0  0  0
 19 20  1  0  0  0
 20 22  2  0  0  0
 20 21  1  0  0  0
 22 23  1  0  0  0
 21 24  1  0  0  0
 23 25  1  0  0  0
M  END
> <minimizedAffinity>
-8.92373

$$$$



 25 25  0  0  0  0  0  0  0  0999 V2000
  -43.5281   57.4410   66.2707 C   0  0  0  0  0  0  0  0  0  0  0  0
  -44.7054   57.1172   65.3485 C   0  0  0  0  0  0  0  0  0  0  0  0
  -45.9437   57.8843   65.8150 C   0  0  0  0  0  0  0  0  0  0  0  0
  -46.7108   58.4029   64.5967 C   0  0  0  0  0  0  0  0  0  0  0  0
  -47.5662   59.6044   65.0057 C   0  0  0  0  0  0  0  0  0  0  0  0
  -49.7683   59.7330   66.0526 C   0  0  0  0  0  0  0  0  0  0  0  0
  -48.5854   59.1702   66.0280 C   0  0  0  0  0  0  0  0  0  0  0  0
  -50.1710   60.6888   64.9608 C   0  0  0  0  0  0  0  0  0  0  0  0
  -51.4594   59.7771   63.0975 C   0  0  0  0  0  0  0  0  0  0  0  0
  -51.4568   60.2189   64.3313 C   0  0  0  0  0  0  0  0  0  0  0  0
  -50.1567   59.5772   62.3666 C   0  0  0  0  0  0  0  0  0  0  0  0
  -50.9980   57.4773   61.3057 C   0  0  0  0  0  0  0  0  0  0  0  0
  -49.8987   58.0802   62.1827 C   0  0  0  0  0  0  0  0  0  0  0  0
  -42.2595   57.6222   65.4347 C   0  0  0  0  0  0  0  0  0  0  0  0
  -41.8524   59.0972   65.4378 C   0  0  0  0  0  0  0  0  0  0  0  0
  -40.3503   59.2038   65.4884 C   0  0  0  0  0  0  0  0  0  0  0  0
  -39.5694   58.0827   65.2753 C   0  0  0  0  0  0  0  0  0  0  0  0
  -38.1914   58.1777   65.3202 C   0  0  0  0  0  0  0  0  0  0  0  0
  -37.5871   59.3945   65.5798 C   0  0  0  0  0  0  0  0  0  0  0  0
  -38.3637   60.5217   65.7928 C   0  0  0  0  0  0  0  0  0  0  0  0
  -37.7710   61.7199   66.0464 O   0  0  0  0  0  0  0  0  0  0  0  0
  -39.7518   60.4270   65.7424 C   0  0  0  0  0  0  0  0  0  0  0  0
  -40.5176   61.5311   65.9515 O   0  0  0  0  0  0  0  0  0  0  0  0
  -36.8367   61.7826   66.0801 H   0  0  0  0  0  0  0  0  0  0  0  0
  -41.4518   61.4667   65.9174 H   0  0  0  0  0  0  0  0  0  0  0  0
 12 13  1  0  0  0
 13 11  1  0  0  0
 11  9  1  0  0  0
  9 10  2  0  0  0
 10  8  1  0  0  0
  8  6  1  0  0  0
  6  7  2  0  0  0
  7  5  1  0  0  0
  5  4  1  0  0  0
  4  3  1  0  0  0
  3  2  1  0  0  0
  2  1  1  0  0  0
  1 14  1  0  0  0
 14 15  1  0  0  0
 15 16  1  0  0  0
 16 17  2  0  0  0
 16 22  1  0  0  0
 17 18  1  0  0  0
 18 19  2  0  0  0
 19 20  1  0  0  0
 20 22  2  0  0  0
 20 21  1  0  0  0
 22 23  1  0  0  0
 21 24  1  0  0  0
 23 25  1  0  0  0
M  END
> <minimizedAffinity>
-8.83020

$$$$



 25 25  0  0  0  0  0  0  0  0999 V2000
  -45.7588   58.1936   65.7835 C   0  0  0  0  0  0  0  0  0  0  0  0
  -46.8001   58.4765   64.6985 C   0  0  0  0  0  0  0  0  0  0  0  0
  -47.8459   59.4533   65.2387 C   0  0  0  0  0  0  0  0  0  0  0  0
  -48.7433   58.7326   66.2471 C   0  0  0  0  0  0  0  0  0  0  0  0
  -50.1728   58.6692   65.7040 C   0  0  0  0  0  0  0  0  0  0  0  0
  -51.2504   60.5464   64.5740 C   0  0  0  0  0  0  0  0  0  0  0  0
  -50.7656   60.0551   65.6877 C   0  0  0  0  0  0  0  0  0  0  0  0
  -51.3711   59.6718   63.3540 C   0  0  0  0  0  0  0  0  0  0  0  0
  -49.5860   59.1590   61.7687 C   0  0  0  0  0  0  0  0  0  0  0  0
  -50.3283   60.0734   62.3432 C   0  0  0  0  0  0  0  0  0  0  0  0
  -49.8870   57.6985   61.9867 C   0  0  0  0  0  0  0  0  0  0  0  0
  -49.4657   57.8373   59.5278 C   0  0  0  0  0  0  0  0  0  0  0  0
  -50.1317   57.0204   60.6371 C   0  0  0  0  0  0  0  0  0  0  0  0
  -44.6158   57.3669   65.1910 C   0  0  0  0  0  0  0  0  0  0  0  0
  -43.3386   57.6094   65.9981 C   0  0  0  0  0  0  0  0  0  0  0  0
  -42.4394   58.5544   65.2442 C   0  0  0  0  0  0  0  0  0  0  0  0
  -42.3209   58.4490   63.8705 C   0  0  0  0  0  0  0  0  0  0  0  0
  -41.4976   59.3151   63.1762 C   0  0  0  0  0  0  0  0  0  0  0  0
  -40.7873   60.2905   63.8525 C   0  0  0  0  0  0  0  0  0  0  0  0
  -40.9027   60.4022   65.2284 C   0  0  0  0  0  0  0  0  0  0  0  0
  -40.2063   61.3623   65.8951 O   0  0  0  0  0  0  0  0  0  0  0  0
  -41.7361   59.5331   65.9272 C   0  0  0  0  0  0  0  0  0  0  0  0
  -41.8515   59.6392   67.2780 O   0  0  0  0  0  0  0  0  0  0  0  0
  -39.6456   61.9468   65.4239 H   0  0  0  0  0  0  0  0  0  0  0  0
  -42.4126   59.0539   67.7477 H   0  0  0  0  0  0  0  0  0  0  0  0
 12 13  1  0  0  0
 13 11  1  0  0  0
 11  9  1  0  0  0
  9 10  2  0  0  0
 10  8  1  0  0  0
  8  6  1  0  0  0
  6  7  2  0  0  0
  7  5  1  0  0  0
  5  4  1  0  0  0
  4  3  1  0  0  0
  3  2  1  0  0  0
  2  1  1  0  0  0
  1 14  1  0  0  0
 14 15  1  0  0  0
 15 16  1  0  0  0
 16 17  2  0  0  0
 16 22  1  0  0  0
 17 18  1  0  0  0
 18 19  2  0  0  0
 19 20  1  0  0  0
 20 22  2  0  0  0
 20 21  1  0  0  0
 22 23  1  0  0  0
 21 24  1  0  0  0
 23 25  1  0  0  0
M  END
> <minimizedAffinity>
-8.78741

$$$$



 25 25  0  0  0  0  0  0  0  0999 V2000
  -47.3278   58.6192   65.4273 C   0  0  0  0  0  0  0  0  0  0  0  0
  -48.5256   58.8041   66.3615 C   0  0  0  0  0  0  0  0  0  0  0  0
  -49.7668   58.1721   65.7293 C   0  0  0  0  0  0  0  0  0  0  0  0
  -50.5330   59.2348   64.9386 C   0  0  0  0  0  0  0  0  0  0  0  0
  -50.7839   58.7299   63.5157 C   0  0  0  0  0  0  0  0  0  0  0  0
  -49.6363   59.5867   61.5381 C   0  0  0  0  0  0  0  0  0  0  0  0
  -50.4585   59.8234   62.5304 C   0  0  0  0  0  0  0  0  0  0  0  0
  -49.1489   58.1852   61.2810 C   0  0  0  0  0  0  0  0  0  0  0  0
  -48.8993   57.6482   58.9120 C   0  0  0  0  0  0  0  0  0  0  0  0
  -49.6859   57.7015   59.9589 C   0  0  0  0  0  0  0  0  0  0  0  0
  -47.4224   57.9049   59.0660 C   0  0  0  0  0  0  0  0  0  0  0  0
  -47.6311   57.1525   56.6926 C   0  0  0  0  0  0  0  0  0  0  0  0
  -46.7607   57.9245   57.6865 C   0  0  0  0  0  0  0  0  0  0  0  0
  -46.1204   58.1382   66.2345 C   0  0  0  0  0  0  0  0  0  0  0  0
  -45.1678   57.3673   65.3181 C   0  0  0  0  0  0  0  0  0  0  0  0
  -43.7594   57.8596   65.5287 C   0  0  0  0  0  0  0  0  0  0  0  0
  -43.4067   58.4566   66.7252 C   0  0  0  0  0  0  0  0  0  0  0  0
  -42.1154   58.9082   66.9215 C   0  0  0  0  0  0  0  0  0  0  0  0
  -41.1703   58.7663   65.9216 C   0  0  0  0  0  0  0  0  0  0  0  0
  -41.5170   58.1680   64.7213 C   0  0  0  0  0  0  0  0  0  0  0  0
  -40.5880   58.0258   63.7372 O   0  0  0  0  0  0  0  0  0  0  0  0
  -42.8164   57.7083   64.5254 C   0  0  0  0  0  0  0  0  0  0  0  0
  -43.1607   57.1209   63.3482 O   0  0  0  0  0  0  0  0  0  0  0  0
  -39.7137   58.3355   63.8700 H   0  0  0  0  0  0  0  0  0  0  0  0
  -44.0354   56.8118   63.2171 H   0  0  0  0  0  0  0  0  0  0  0  0
 12 13  1  0  0  0
 13 11  1  0  0  0
 11  9  1  0  0  0
  9 10  2  0  0  0
 10  8  1  0  0  0
  8  6  1  0  0  0
  6  7  2  0  0  0
  7  5  1  0  0  0
  5  4  1  0  0  0
  4  3  1  0  0  0
  3  2  1  0  0  0
  2  1  1  0  0  0
  1 14  1  0  0  0
 14 15  1  0  0  0
 15 16  1  0  0  0
 16 17  2  0  0  0
 16 22  1  0  0  0
 17 18  1  0  0  0
 18 19  2  0  0  0
 19 20  1  0  0  0
 20 22  2  0  0  0
 20 21  1  0  0  0
 22 23  1  0  0  0
 21 24  1  0  0  0
 23 25  1  0  0  0
M  END
> <minimizedAffinity>
-8.75464

$$$$



 25 25  0  0  0  0  0  0  0  0999 V2000
  -33.8537   57.8809   62.2439 C   0  0  0  0  0  0  0  0  0  0  0  0
  -32.5248   57.3434   61.7083 C   0  0  0  0  0  0  0  0  0  0  0  0
  -31.8225   58.4356   60.8999 C   0  0  0  0  0  0  0  0  0  0  0  0
  -30.3509   58.5086   61.3130 C   0  0  0  0  0  0  0  0  0  0  0  0
  -29.7221   57.1169   61.2092 C   0  0  0  0  0  0  0  0  0  0  0  0
  -27.4431   56.2408   61.1894 C   0  0  0  0  0  0  0  0  0  0  0  0
  -28.2423   57.2523   60.9557 C   0  0  0  0  0  0  0  0  0  0  0  0
  -28.0159   54.8950   61.5481 C   0  0  0  0  0  0  0  0  0  0  0  0
  -27.8878   54.5104   63.9561 C   0  0  0  0  0  0  0  0  0  0  0  0
  -27.3268   54.3683   62.7803 C   0  0  0  0  0  0  0  0  0  0  0  0
  -29.2935   55.0434   64.0604 C   0  0  0  0  0  0  0  0  0  0  0  0
  -30.0877   57.3053   64.7646 C   0  0  0  0  0  0  0  0  0  0  0  0
  -29.3807   56.0295   65.2271 C   0  0  0  0  0  0  0  0  0  0  0  0
  -33.5875   59.0673   63.1725 C   0  0  0  0  0  0  0  0  0  0  0  0
  -33.8915   58.6634   64.6168 C   0  0  0  0  0  0  0  0  0  0  0  0
  -35.3501   58.9028   64.9092 C   0  0  0  0  0  0  0  0  0  0  0  0
  -36.2566   57.8639   64.8037 C   0  0  0  0  0  0  0  0  0  0  0  0
  -37.5949   58.0804   65.0722 C   0  0  0  0  0  0  0  0  0  0  0  0
  -38.0338   59.3376   65.4462 C   0  0  0  0  0  0  0  0  0  0  0  0
  -37.1305   60.3823   65.5549 C   0  0  0  0  0  0  0  0  0  0  0  0
  -37.5602   61.6192   65.9247 O   0  0  0  0  0  0  0  0  0  0  0  0
  -35.7816   60.1630   65.2896 C   0  0  0  0  0  0  0  0  0  0  0  0
  -34.8919   61.1861   65.3947 O   0  0  0  0  0  0  0  0  0  0  0  0
  -38.4683   61.7658   66.1031 H   0  0  0  0  0  0  0  0  0  0  0  0
  -33.9841   61.0377   65.2160 H   0  0  0  0  0  0  0  0  0  0  0  0
 12 13  1  0  0  0
 13 11  1  0  0  0
 11  9  1  0  0  0
  9 10  2  0  0  0
 10  8  1  0  0  0
  8  6  1  0  0  0
  6  7  2  0  0  0
  7  5  1  0  0  0
  5  4  1  0  0  0
  4  3  1  0  0  0
  3  2  1  0  0  0
  2  1  1  0  0  0
  1 14  1  0  0  0
 14 15  1  0  0  0
 15 16  1  0  0  0
 16 17  2  0  0  0
 16 22  1  0  0  0
 17 18  1  0  0  0
 18 19  2  0  0  0
 19 20  1  0  0  0
 20 22  2  0  0  0
 20 21  1  0  0  0
 22 23  1  0  0  0
 21 24  1  0  0  0
 23 25  1  0  0  0
M  END
> <minimizedAffinity>
-8.66052

$$$$



 25 25  0  0  0  0  0  0  0  0999 V2000
  -45.5760   57.5354   65.8978 C   0  0  0  0  0  0  0  0  0  0  0  0
  -47.0697   57.7908   65.6850 C   0  0  0  0  0  0  0  0  0  0  0  0
  -47.2586   59.1075   64.9298 C   0  0  0  0  0  0  0  0  0  0  0  0
  -48.6382   59.6860   65.2518 C   0  0  0  0  0  0  0  0  0  0  0  0
  -49.7102   58.6256   64.9893 C   0  0  0  0  0  0  0  0  0  0  0  0
  -50.8842   59.0361   62.8881 C   0  0  0  0  0  0  0  0  0  0  0  0
  -50.8295   59.2324   64.1823 C   0  0  0  0  0  0  0  0  0  0  0  0
  -49.9325   58.0712   62.2313 C   0  0  0  0  0  0  0  0  0  0  0  0
  -50.0584   57.7392   59.8153 C   0  0  0  0  0  0  0  0  0  0  0  0
  -50.5743   57.4961   60.9952 C   0  0  0  0  0  0  0  0  0  0  0  0
  -48.7325   58.4469   59.7045 C   0  0  0  0  0  0  0  0  0  0  0  0
  -46.8199   58.2051   58.1150 C   0  0  0  0  0  0  0  0  0  0  0  0
  -47.6827   57.4812   59.1507 C   0  0  0  0  0  0  0  0  0  0  0  0
  -44.8278   57.7553   64.5815 C   0  0  0  0  0  0  0  0  0  0  0  0
  -43.3768   57.2942   64.7357 C   0  0  0  0  0  0  0  0  0  0  0  0
  -42.5492   58.4196   65.3002 C   0  0  0  0  0  0  0  0  0  0  0  0
  -42.5270   58.6456   66.6642 C   0  0  0  0  0  0  0  0  0  0  0  0
  -41.7680   59.6766   67.1849 C   0  0  0  0  0  0  0  0  0  0  0  0
  -41.0282   60.4879   66.3437 C   0  0  0  0  0  0  0  0  0  0  0  0
  -41.0451   60.2658   64.9764 C   0  0  0  0  0  0  0  0  0  0  0  0
  -40.3163   61.0617   64.1475 O   0  0  0  0  0  0  0  0  0  0  0  0
  -41.8055   59.2241   64.4524 C   0  0  0  0  0  0  0  0  0  0  0  0
  -41.8251   59.0033   63.1107 O   0  0  0  0  0  0  0  0  0  0  0  0
  -39.8048   61.7626   64.5012 H   0  0  0  0  0  0  0  0  0  0  0  0
  -42.3371   58.3019   62.7587 H   0  0  0  0  0  0  0  0  0  0  0  0
 12 13  1  0  0  0
 13 11  1  0  0  0
 11  9  1  0  0  0
  9 10  2  0  0  0
 10  8  1  0  0  0
  8  6  1  0  0  0
  6  7  2  0  0  0
  7  5  1  0  0  0
  5  4  1  0  0  0
  4  3  1  0  0  0
  3  2  1  0  0  0
  2  1  1  0  0  0
  1 14  1  0  0  0
 14 15  1  0  0  0
 15 16  1  0  0  0
 16 17  2  0  0  0
 16 22  1  0  0  0
 17 18  1  0  0  0
 18 19  2  0  0  0
 19 20  1  0  0  0
 20 22  2  0  0  0
 20 21  1  0  0  0
 22 23  1  0  0  0
 21 24  1  0  0  0
 23 25  1  0  0  0
M  END
> <minimizedAffinity>
-8.60261

$$$$
