


 25 25  0  0  0  0  0  0  0  0999 V2000
  -50.3894   59.2218   65.2518 C   0  0  0  0  0  0  0  0  0  0  0  0
  -51.0366   60.3956   64.5137 C   0  0  0  0  0  0  0  0  0  0  0  0
  -51.3434   59.9841   63.0728 C   0  0  0  0  0  0  0  0  0  0  0  0
  -50.1302   60.2812   62.1888 C   0  0  0  0  0  0  0  0  0  0  0  0
  -49.6230   58.9793   61.5640 C   0  0  0  0  0  0  0  0  0  0  0  0
  -50.8824   57.0722   60.7046 C   0  0  0  0  0  0  0  0  0  0  0  0
  -50.6849   57.9165   61.6868 C   0  0  0  0  0  0  0  0  0  0  0  0
  -49.9430   57.0521   59.5277 C   0  0  0  0  0  0  0  0  0  0  0  0
  -47.8315   55.9482   58.9929 C   0  0  0  0  0  0  0  0  0  0  0  0
  -48.9232   55.9593   59.7179 C   0  0  0  0  0  0  0  0  0  0  0  0
  -47.5127   57.1150   58.0939 C   0  0  0  0  0  0  0  0  0  0  0  0
  -47.3112   55.1586   56.5529 C   0  0  0  0  0  0  0  0  0  0  0  0
  -47.5701   56.6646   56.6328 C   0  0  0  0  0  0  0  0  0  0  0  0
  -48.8847   59.4673   65.3812 C   0  0  0  0  0  0  0  0  0  0  0  0
  -48.1551   58.1258   65.4790 C   0  0  0  0  0  0  0  0  0  0  0  0
  -46.6679   58.3562   65.4067 C   0  0  0  0  0  0  0  0  0  0  0  0
  -46.1717   59.6413   65.2865 C   0  0  0  0  0  0  0  0  0  0  0  0
  -44.8080   59.8557   65.2210 C   0  0  0  0  0  0  0  0  0  0  0  0
  -43.9333   58.7856   65.2739 C   0  0  0  0  0  0  0  0  0  0  0  0
  -44.4239   57.4958   65.3956 C   0  0  0  0  0  0  0  0  0  0  0  0
  -43.5648   56.4420   65.4498 O   0  0  0  0  0  0  0  0  0  0  0  0
  -45.7974   57.2803   65.4669 C   0  0  0  0  0  0  0  0  0  0  0  0
  -46.2829   56.0156   65.5858 O   0  0  0  0  0  0  0  0  0  0  0  0
  -42.6405   56.5882   65.4017 H   0  0  0  0  0  0  0  0  0  0  0  0
  -47.2075   55.8712   65.6338 H   0  0  0  0  0  0  0  0  0  0  0  0
 12 13  1  0  0  0
 13 11  1  0  0  0
 11  9  1  0  0  0
  9 10  2  0  0  0
 10  8  1  0  0  0
  8  6  1  0  0  0
  6  7  2  0  0  0
  7  5  1  0  0  0
  5  4  1  0  0  0
  4  3  1  0  0  0
  3  2  1  0  0  0
  2  1  1  0  0  0
  1 14  1  0  0  0
 14 15  1  0  0  0
 15 16  1  0  0  0
 16 17  2  0  0  0
 16 22  1  0  0  0
 17 18  1  0  0  0
 18 19  2  0  0  0
 19 20  1  0  0  0
 20 22  2  0  0  0
 20 21  1  0  0  0
 22 23  1  0  0  0
 21 24  1  0  0  0
 23 25  1  0  0  0
M  END
> <minimizedAffinity>
-9.39240

$$$$



 25 25  0  0  0  0  0  0  0  0999 V2000
  -49.9764   57.9821   65.1282 C   0  0  0  0  0  0  0  0  0  0  0  0
  -50.1607   59.4967   65.0115 C   0  0  0  0  0  0  0  0  0  0  0  0
  -50.9181   59.8198   63.7225 C   0  0  0  0  0  0  0  0  0  0  0  0
  -49.9337   60.3278   62.6669 C   0  0  0  0  0  0  0  0  0  0  0  0
  -49.7255   59.2484   61.6019 C   0  0  0  0  0  0  0  0  0  0  0  0
  -50.9881   57.3304   60.7718 C   0  0  0  0  0  0  0  0  0  0  0  0
  -50.7988   58.1984   61.7349 C   0  0  0  0  0  0  0  0  0  0  0  0
  -50.0301   57.2715   59.6113 C   0  0  0  0  0  0  0  0  0  0  0  0
  -47.9998   56.0320   59.0598 C   0  0  0  0  0  0  0  0  0  0  0  0
  -49.0692   56.1282   59.8111 C   0  0  0  0  0  0  0  0  0  0  0  0
  -47.6395   57.1502   58.1159 C   0  0  0  0  0  0  0  0  0  0  0  0
  -47.1415   55.3012   56.5109 C   0  0  0  0  0  0  0  0  0  0  0  0
  -47.8022   56.6720   56.6716 C   0  0  0  0  0  0  0  0  0  0  0  0
  -48.4860   57.6426   65.0623 C   0  0  0  0  0  0  0  0  0  0  0  0
  -47.6909   58.6769   65.8621 C   0  0  0  0  0  0  0  0  0  0  0  0
  -46.2161   58.4347   65.6708 C   0  0  0  0  0  0  0  0  0  0  0  0
  -45.6845   57.1803   65.9074 C   0  0  0  0  0  0  0  0  0  0  0  0
  -44.3323   56.9550   65.7319 C   0  0  0  0  0  0  0  0  0  0  0  0
  -43.5044   57.9836   65.3200 C   0  0  0  0  0  0  0  0  0  0  0  0
  -44.0311   59.2422   65.0800 C   0  0  0  0  0  0  0  0  0  0  0  0
  -43.2185   60.2549   64.6728 O   0  0  0  0  0  0  0  0  0  0  0  0
  -45.3940   59.4678   65.2518 C   0  0  0  0  0  0  0  0  0  0  0  0
  -45.9147   60.7022   65.0178 O   0  0  0  0  0  0  0  0  0  0  0  0
  -42.3013   60.1020   64.5575 H   0  0  0  0  0  0  0  0  0  0  0  0
  -46.8321   60.8533   65.1336 H   0  0  0  0  0  0  0  0  0  0  0  0
 12 13  1  0  0  0
 13 11  1  0  0  0
 11  9  1  0  0  0
  9 10  2  0  0  0
 10  8  1  0  0  0
  8  6  1  0  0  0
  6  7  2  0  0  0
  7  5  1  0  0  0
  5  4  1  0  0  0
  4  3  1  0  0  0
  3  2  1  0  0  0
  2  1  1  0  0  0
  1 14  1  0  0  0
 14 15  1  0  0  0
 15 16  1  0  0  0
 16 17  2  0  0  0
 16 22  1  0  0  0
 17 18  1  0  0  0
 18 19  2  0  0  0
 19 20  1  0  0  0
 20 22  2  0  0  0
 20 21  1  0  0  0
 22 23  1  0  0  0
 21 24  1  0  0  0
 23 25  1  0  0  0
M  END
> <minimizedAffinity>
-9.00089

$$$$



 25 25  0  0  0  0  0  0  0  0999 V2000
  -41.2576   59.3048   65.3881 C   0  0  0  0  0  0  0  0  0  0  0  0
  -42.1759   60.1438   64.4968 C   0  0  0  0  0  0  0  0  0  0  0  0
  -43.6314   59.9173   64.9089 C   0  0  0  0  0  0  0  0  0  0  0  0
  -44.0152   58.4600   64.6433 C   0  0  0  0  0  0  0  0  0  0  0  0
  -45.5096   58.2685   64.9130 C   0  0  0  0  0  0  0  0  0  0  0  0
  -47.0143   59.7858   66.0943 C   0  0  0  0  0  0  0  0  0  0  0  0
  -45.9103   59.0807   66.1180 C   0  0  0  0  0  0  0  0  0  0  0  0
  -47.9671   59.6554   64.9354 C   0  0  0  0  0  0  0  0  0  0  0  0
  -50.0067   58.3795   64.5169 C   0  0  0  0  0  0  0  0  0  0  0  0
  -49.2214   58.9569   65.3929 C   0  0  0  0  0  0  0  0  0  0  0  0
  -49.5733   58.2637   63.0782 C   0  0  0  0  0  0  0  0  0  0  0  0
  -51.4973   59.8411   62.8483 C   0  0  0  0  0  0  0  0  0  0  0  0
  -50.7114   58.7210   62.1635 C   0  0  0  0  0  0  0  0  0  0  0  0
  -39.7991   59.6731   65.1087 C   0  0  0  0  0  0  0  0  0  0  0  0
  -39.6568   60.1272   63.6543 C   0  0  0  0  0  0  0  0  0  0  0  0
  -38.7926   59.1473   62.9041 C   0  0  0  0  0  0  0  0  0  0  0  0
  -38.3899   57.9726   63.5126 C   0  0  0  0  0  0  0  0  0  0  0  0
  -37.5979   57.0714   62.8266 C   0  0  0  0  0  0  0  0  0  0  0  0
  -37.2032   57.3411   61.5286 C   0  0  0  0  0  0  0  0  0  0  0  0
  -37.6043   58.5155   60.9130 C   0  0  0  0  0  0  0  0  0  0  0  0
  -37.2187   58.7815   59.6355 O   0  0  0  0  0  0  0  0  0  0  0  0
  -38.4065   59.4208   61.6022 C   0  0  0  0  0  0  0  0  0  0  0  0
  -38.8018   60.5750   61.0014 O   0  0  0  0  0  0  0  0  0  0  0  0
  -36.6788   58.1715   59.1724 H   0  0  0  0  0  0  0  0  0  0  0  0
  -39.3417   61.1838   61.4659 H   0  0  0  0  0  0  0  0  0  0  0  0
 12 13  1  0  0  0
 13 11  1  0  0  0
 11  9  1  0  0  0
  9 10  2  0  0  0
 10  8  1  0  0  0
  8  6  1  0  0  0
  6  7  2  0  0  0
  7  5  1  0  0  0
  5  4  1  0  0  0
  4  3  1  0  0  0
  3  2  1  0  0  0
  2  1  1  0  0  0
  1 14  1  0  0  0
 14 15  1  0  0  0
 15 16  1  0  0  0
 16 17  2  0  0  0
 16 22  1  0  0  0
 17 18  1  0  0  0
 18 19  2  0  0  0
 19 20  1  0  0  0
 20 22  2  0  0  0
 20 21  1  0  0  0
 22 23  1  0  0  0
 21 24  1  0  0  0
 23 25  1  0  0  0
M  END
> <minimizedAffinity>
-8.72018

$$$$



 25 25  0  0  0  0  0  0  0  0999 V2000
  -42.7916   59.6468   65.3015 C   0  0  0  0  0  0  0  0  0  0  0  0
  -43.9609   58.8729   64.6888 C   0  0  0  0  0  0  0  0  0  0  0  0
  -45.2557   59.2519   65.4094 C   0  0  0  0  0  0  0  0  0  0  0  0
  -46.2067   58.0530   65.4124 C   0  0  0  0  0  0  0  0  0  0  0  0
  -47.3938   58.3409   64.4901 C   0  0  0  0  0  0  0  0  0  0  0  0
  -49.7353   58.4181   65.1780 C   0  0  0  0  0  0  0  0  0  0  0  0
  -48.6382   57.7113   65.0622 C   0  0  0  0  0  0  0  0  0  0  0  0
  -49.8060   59.8019   64.5881 C   0  0  0  0  0  0  0  0  0  0  0  0
  -51.0527   60.0896   62.5082 C   0  0  0  0  0  0  0  0  0  0  0  0
  -51.0882   59.9514   63.8109 C   0  0  0  0  0  0  0  0  0  0  0  0
  -49.7493   59.9279   61.7691 C   0  0  0  0  0  0  0  0  0  0  0  0
  -49.3571   57.4845   61.4244 C   0  0  0  0  0  0  0  0  0  0  0  0
  -49.8667   58.7721   60.7734 C   0  0  0  0  0  0  0  0  0  0  0  0
  -41.5740   58.7272   65.4144 C   0  0  0  0  0  0  0  0  0  0  0  0
  -40.2960   59.5687   65.4054 C   0  0  0  0  0  0  0  0  0  0  0  0
  -39.4515   59.1872   64.2174 C   0  0  0  0  0  0  0  0  0  0  0  0
  -38.9265   57.9114   64.1227 C   0  0  0  0  0  0  0  0  0  0  0  0
  -38.1523   57.5584   63.0336 C   0  0  0  0  0  0  0  0  0  0  0  0
  -37.8979   58.4801   62.0341 C   0  0  0  0  0  0  0  0  0  0  0  0
  -38.4220   59.7594   62.1225 C   0  0  0  0  0  0  0  0  0  0  0  0
  -38.1745   60.6668   61.1392 O   0  0  0  0  0  0  0  0  0  0  0  0
  -39.2063   60.1134   63.2169 C   0  0  0  0  0  0  0  0  0  0  0  0
  -39.7221   61.3684   63.3075 O   0  0  0  0  0  0  0  0  0  0  0  0
  -37.6466   60.4276   60.4030 H   0  0  0  0  0  0  0  0  0  0  0  0
  -40.2498   61.6060   64.0444 H   0  0  0  0  0  0  0  0  0  0  0  0
 12 13  1  0  0  0
 13 11  1  0  0  0
 11  9  1  0  0  0
  9 10  2  0  0  0
 10  8  1  0  0  0
  8  6  1  0  0  0
  6  7  2  0  0  0
  7  5  1  0  0  0
  5  4  1  0  0  0
  4  3  1  0  0  0
  3  2  1  0  0  0
  2  1  1  0  0  0
  1 14  1  0  0  0
 14 15  1  0  0  0
 15 16  1  0  0  0
 16 17  2  0  0  0
 16 22  1  0  0  0
 17 18  1  0  0  0
 18 19  2  0  0  0
 19 20  1  0  0  0
 20 22  2  0  0  0
 20 21  1  0  0  0
 22 23  1  0  0  0
 21 24  1  0  0  0
 23 25  1  0  0  0
M  END
> <minimizedAffinity>
-8.69853

$$$$



 25 25  0  0  0  0  0  0  0  0999 V2000
  -48.1538   60.2246   64.7978 C   0  0  0  0  0  0  0  0  0  0  0  0
  -48.7750   59.0422   65.5445 C   0  0  0  0  0  0  0  0  0  0  0  0
  -50.1343   58.7080   64.9279 C   0  0  0  0  0  0  0  0  0  0  0  0
  -50.7894   59.9913   64.4127 C   0  0  0  0  0  0  0  0  0  0  0  0
  -51.3143   59.7621   62.9934 C   0  0  0  0  0  0  0  0  0  0  0  0
  -49.5620   59.7131   61.2937 C   0  0  0  0  0  0  0  0  0  0  0  0
  -50.3955   60.4324   62.0040 C   0  0  0  0  0  0  0  0  0  0  0  0
  -49.6361   58.2096   61.3391 C   0  0  0  0  0  0  0  0  0  0  0  0
  -49.9517   57.2452   59.1180 C   0  0  0  0  0  0  0  0  0  0  0  0
  -50.5030   57.7154   60.2100 C   0  0  0  0  0  0  0  0  0  0  0  0
  -48.4603   57.0383   59.0563 C   0  0  0  0  0  0  0  0  0  0  0  0
  -46.5852   57.1485   57.4086 C   0  0  0  0  0  0  0  0  0  0  0  0
  -48.0453   56.7395   57.6142 C   0  0  0  0  0  0  0  0  0  0  0  0
  -46.6667   60.3226   65.1439 C   0  0  0  0  0  0  0  0  0  0  0  0
  -46.3232   59.2880   66.2178 C   0  0  0  0  0  0  0  0  0  0  0  0
  -44.9082   58.8095   66.0202 C   0  0  0  0  0  0  0  0  0  0  0  0
  -43.8548   59.6980   66.1352 C   0  0  0  0  0  0  0  0  0  0  0  0
  -42.5558   59.2617   65.9554 C   0  0  0  0  0  0  0  0  0  0  0  0
  -42.3036   57.9346   65.6584 C   0  0  0  0  0  0  0  0  0  0  0  0
  -43.3544   57.0392   65.5432 C   0  0  0  0  0  0  0  0  0  0  0  0
  -43.1081   55.7328   65.2531 O   0  0  0  0  0  0  0  0  0  0  0  0
  -44.6625   57.4776   65.7295 C   0  0  0  0  0  0  0  0  0  0  0  0
  -45.6967   56.6017   65.6167 O   0  0  0  0  0  0  0  0  0  0  0  0
  -42.2272   55.4387   65.1279 H   0  0  0  0  0  0  0  0  0  0  0  0
  -46.5769   56.8975   65.7422 H   0  0  0  0  0  0  0  0  0  0  0  0
 12 13  1  0  0  0
 13 11  1  0  0  0
 11  9  1  0  0  0
  9 10  2  0  0  0
 10  8  1  0  0  0
  8  6  1  0  0  0
  6  7  2  0  0  0
  7  5  1  0  0  0
  5  4  1  0  0  0
  4  3  1  0  0  0
  3  2  1  0  0  0
  2  1  1  0  0  0
  1 14  1  0  0  0
 14 15  1  0  0  0
 15 16  1  0  0  0
 16 17  2  0  0  0
 16 22  1  0  0  0
 17 18  1  0  0  0
 18 19  2  0  0  0
 19 20  1  0  0  0
 20 22  2  0  0  0
 20 21  1  0  0  0
 22 23  1  0  0  0
 21 24  1  0  0  0
 23 25  1  0  0  0
M  END
> <minimizedAffinity>
-8.68109

$$$$



 25 25  0  0  0  0  0  0  0  0999 V2000
  -43.3312   57.5676   65.5381 C   0  0  0  0  0  0  0  0  0  0  0  0
  -44.2688   58.4088   64.6693 C   0  0  0  0  0  0  0  0  0  0  0  0
  -45.7071   58.2408   65.1619 C   0  0  0  0  0  0  0  0  0  0  0  0
  -45.9725   59.2240   66.3041 C   0  0  0  0  0  0  0  0  0  0  0  0
  -47.4180   59.7209   66.2240 C   0  0  0  0  0  0  0  0  0  0  0  0
  -48.5646   60.7754   64.3438 C   0  0  0  0  0  0  0  0  0  0  0  0
  -47.5294   60.7695   65.1469 C   0  0  0  0  0  0  0  0  0  0  0  0
  -49.7218   59.8461   64.5993 C   0  0  0  0  0  0  0  0  0  0  0  0
  -51.2718   59.8348   62.7124 C   0  0  0  0  0  0  0  0  0  0  0  0
  -50.9408   60.3502   63.8709 C   0  0  0  0  0  0  0  0  0  0  0  0
  -50.5390   58.6265   62.1887 C   0  0  0  0  0  0  0  0  0  0  0  0
  -49.5969   60.5309   60.8739 C   0  0  0  0  0  0  0  0  0  0  0  0
  -49.7539   59.0100   60.9326 C   0  0  0  0  0  0  0  0  0  0  0  0
  -42.2701   58.4721   66.1680 C   0  0  0  0  0  0  0  0  0  0  0  0
  -41.9340   59.6124   65.2046 C   0  0  0  0  0  0  0  0  0  0  0  0
  -40.4384   59.7725   65.1176 C   0  0  0  0  0  0  0  0  0  0  0  0
  -39.6512   58.7107   64.7113 C   0  0  0  0  0  0  0  0  0  0  0  0
  -38.2792   58.8550   64.6297 C   0  0  0  0  0  0  0  0  0  0  0  0
  -37.6870   60.0618   64.9555 C   0  0  0  0  0  0  0  0  0  0  0  0
  -38.4701   61.1297   65.3621 C   0  0  0  0  0  0  0  0  0  0  0  0
  -37.8895   62.3183   65.6811 O   0  0  0  0  0  0  0  0  0  0  0  0
  -39.8527   60.9860   65.4392 C   0  0  0  0  0  0  0  0  0  0  0  0
  -40.6248   62.0319   65.8384 O   0  0  0  0  0  0  0  0  0  0  0  0
  -36.9589   62.4140   65.6289 H   0  0  0  0  0  0  0  0  0  0  0  0
  -41.5553   61.9344   65.8901 H   0  0  0  0  0  0  0  0  0  0  0  0
 12 13  1  0  0  0
 13 11  1  0  0  0
 11  9  1  0  0  0
  9 10  2  0  0  0
 10  8  1  0  0  0
  8  6  1  0  0  0
  6  7  2  0  0  0
  7  5  1  0  0  0
  5  4  1  0  0  0
  4  3  1  0  0  0
  3  2  1  0  0  0
  2  1  1  0  0  0
  1 14  1  0  0  0
 14 15  1  0  0  0
 15 16  1  0  0  0
 16 17  2  0  0  0
 16 22  1  0  0  0
 17 18  1  0  0  0
 18 19  2  0  0  0
 19 20  1  0  0  0
 20 22  2  0  0  0
 20 21  1  0  0  0
 22 23  1  0  0  0
 21 24  1  0  0  0
 23 25  1  0  0  0
M  END
> <minimizedAffinity>
-8.64525

$$$$



 25 25  0  0  0  0  0  0  0  0999 V2000
  -41.8088   60.0740   63.7754 C   0  0  0  0  0  0  0  0  0  0  0  0
  -42.3667   60.5526   65.1175 C   0  0  0  0  0  0  0  0  0  0  0  0
  -42.0513   59.5174   66.1984 C   0  0  0  0  0  0  0  0  0  0  0  0
  -42.0739   58.1161   65.5839 C   0  0  0  0  0  0  0  0  0  0  0  0
  -43.3741   57.4089   65.9738 C   0  0  0  0  0  0  0  0  0  0  0  0
  -45.4058   57.9357   64.7261 C   0  0  0  0  0  0  0  0  0  0  0  0
  -44.2648   57.2927   64.7633 C   0  0  0  0  0  0  0  0  0  0  0  0
  -45.7515   58.9205   65.8118 C   0  0  0  0  0  0  0  0  0  0  0  0
  -47.4494   60.5802   65.2413 C   0  0  0  0  0  0  0  0  0  0  0  0
  -46.1902   60.2206   65.1892 C   0  0  0  0  0  0  0  0  0  0  0  0
  -48.4262   59.7843   66.0680 C   0  0  0  0  0  0  0  0  0  0  0  0
  -49.7003   58.4557   64.3786 C   0  0  0  0  0  0  0  0  0  0  0  0
  -49.7531   59.6642   65.3156 C   0  0  0  0  0  0  0  0  0  0  0  0
  -40.8794   61.1435   63.1982 C   0  0  0  0  0  0  0  0  0  0  0  0
  -39.4767   60.9718   63.7854 C   0  0  0  0  0  0  0  0  0  0  0  0
  -38.8308   59.7460   63.1937 C   0  0  0  0  0  0  0  0  0  0  0  0
  -38.8245   58.5575   63.9006 C   0  0  0  0  0  0  0  0  0  0  0  0
  -38.2336   57.4312   63.3600 C   0  0  0  0  0  0  0  0  0  0  0  0
  -37.6446   57.4881   62.1098 C   0  0  0  0  0  0  0  0  0  0  0  0
  -37.6486   58.6753   61.3960 C   0  0  0  0  0  0  0  0  0  0  0  0
  -37.0714   58.7326   60.1651 O   0  0  0  0  0  0  0  0  0  0  0  0
  -38.2485   59.8084   61.9384 C   0  0  0  0  0  0  0  0  0  0  0  0
  -38.2540   60.9759   61.2409 O   0  0  0  0  0  0  0  0  0  0  0  0
  -36.6679   57.9693   59.8009 H   0  0  0  0  0  0  0  0  0  0  0  0
  -38.6580   61.7382   61.6066 H   0  0  0  0  0  0  0  0  0  0  0  0
 12 13  1  0  0  0
 13 11  1  0  0  0
 11  9  1  0  0  0
  9 10  2  0  0  0
 10  8  1  0  0  0
  8  6  1  0  0  0
  6  7  2  0  0  0
  7  5  1  0  0  0
  5  4  1  0  0  0
  4  3  1  0  0  0
  3  2  1  0  0  0
  2  1  1  0  0  0
  1 14  1  0  0  0
 14 15  1  0  0  0
 15 16  1  0  0  0
 16 17  2  0  0  0
 16 22  1  0  0  0
 17 18  1  0  0  0
 18 19  2  0  0  0
 19 20  1  0  0  0
 20 22  2  0  0  0
 20 21  1  0  0  0
 22 23  1  0  0  0
 21 24  1  0  0  0
 23 25  1  0  0  0
M  END
> <minimizedAffinity>
-8.60568

$$$$



 25 25  0  0  0  0  0  0  0  0999 V2000
  -44.8403   59.2964   66.1540 C   0  0  0  0  0  0  0  0  0  0  0  0
  -46.0688   59.6216   65.3015 C   0  0  0  0  0  0  0  0  0  0  0  0
  -47.1796   58.6145   65.6039 C   0  0  0  0  0  0  0  0  0  0  0  0
  -47.9788   58.3392   64.3284 C   0  0  0  0  0  0  0  0  0  0  0  0
  -49.4507   58.1194   64.6859 C   0  0  0  0  0  0  0  0  0  0  0  0
  -50.7624   60.1561   64.3804 C   0  0  0  0  0  0  0  0  0  0  0  0
  -50.0445   59.4119   65.1851 C   0  0  0  0  0  0  0  0  0  0  0  0
  -51.1364   59.6449   63.0141 C   0  0  0  0  0  0  0  0  0  0  0  0
  -49.7297   59.4265   61.0300 C   0  0  0  0  0  0  0  0  0  0  0  0
  -50.1767   60.1964   61.9918 C   0  0  0  0  0  0  0  0  0  0  0  0
  -50.3028   58.0453   60.8433 C   0  0  0  0  0  0  0  0  0  0  0  0
  -48.4987   56.7396   59.7106 C   0  0  0  0  0  0  0  0  0  0  0  0
  -49.2005   57.0034   61.0444 C   0  0  0  0  0  0  0  0  0  0  0  0
  -43.5706   59.5817   65.3495 C   0  0  0  0  0  0  0  0  0  0  0  0
  -42.5340   60.2535   66.2528 C   0  0  0  0  0  0  0  0  0  0  0  0
  -41.1603   60.0753   65.6602 C   0  0  0  0  0  0  0  0  0  0  0  0
  -40.7630   58.8353   65.1945 C   0  0  0  0  0  0  0  0  0  0  0  0
  -39.5039   58.6691   64.6496 C   0  0  0  0  0  0  0  0  0  0  0  0
  -38.6348   59.7422   64.5688 C   0  0  0  0  0  0  0  0  0  0  0  0
  -39.0272   60.9872   65.0323 C   0  0  0  0  0  0  0  0  0  0  0  0
  -38.1743   62.0444   64.9518 O   0  0  0  0  0  0  0  0  0  0  0  0
  -40.2975   61.1558   65.5764 C   0  0  0  0  0  0  0  0  0  0  0  0
  -40.6862   62.3764   66.0331 O   0  0  0  0  0  0  0  0  0  0  0  0
  -37.3196   61.9299   64.5854 H   0  0  0  0  0  0  0  0  0  0  0  0
  -41.5413   62.4891   66.3991 H   0  0  0  0  0  0  0  0  0  0  0  0
 12 13  1  0  0  0
 13 11  1  0  0  0
 11  9  1  0  0  0
  9 10  2  0  0  0
 10  8  1  0  0  0
  8  6  1  0  0  0
  6  7  2  0  0  0
  7  5  1  0  0  0
  5  4  1  0  0  0
  4  3  1  0  0  0
  3  2  1  0  0  0
  2  1  1  0  0  0
  1 14  1  0  0  0
 14 15  1  0  0  0
 15 16  1  0  0  0
 16 17  2  0  0  0
 16 22  1  0  0  0
 17 18  1  0  0  0
 18 19  2  0  0  0
 19 20  1  0  0  0
 20 22  2  0  0  0
 20 21  1  0  0  0
 22 23  1  0  0  0
 21 24  1  0  0  0
 23 25  1  0  0  0
M  END
> <minimizedAffinity>
-8.58630

$$$$



 25 25  0  0  0  0  0  0  0  0999 V2000
  -45.1736   58.9552   65.6157 C   0  0  0  0  0  0  0  0  0  0  0  0
  -46.2440   58.0149   65.0575 C   0  0  0  0  0  0  0  0  0  0  0  0
  -47.4994   58.8187   64.7148 C   0  0  0  0  0  0  0  0  0  0  0  0
  -48.5371   57.8943   64.0743 C   0  0  0  0  0  0  0  0  0  0  0  0
  -48.8721   58.3995   62.6689 C   0  0  0  0  0  0  0  0  0  0  0  0
  -50.7568   57.5418   61.3750 C   0  0  0  0  0  0  0  0  0  0  0  0
  -50.3478   58.2292   62.4127 C   0  0  0  0  0  0  0  0  0  0  0  0
  -49.7639   56.7822   60.5353 C   0  0  0  0  0  0  0  0  0  0  0  0
  -48.7159   57.1803   58.3660 C   0  0  0  0  0  0  0  0  0  0  0  0
  -49.7679   57.3323   59.1325 C   0  0  0  0  0  0  0  0  0  0  0  0
  -47.5719   56.3112   58.8209 C   0  0  0  0  0  0  0  0  0  0  0  0
  -47.5478   56.0813   56.3331 C   0  0  0  0  0  0  0  0  0  0  0  0
  -47.0829   55.4561   57.6501 C   0  0  0  0  0  0  0  0  0  0  0  0
  -43.9552   58.9484   64.6903 C   0  0  0  0  0  0  0  0  0  0  0  0
  -43.0863   60.1740   64.9810 C   0  0  0  0  0  0  0  0  0  0  0  0
  -41.6682   59.8974   64.5537 C   0  0  0  0  0  0  0  0  0  0  0  0
  -40.9438   58.8924   65.1681 C   0  0  0  0  0  0  0  0  0  0  0  0
  -39.6432   58.6358   64.7775 C   0  0  0  0  0  0  0  0  0  0  0  0
  -39.0596   59.3842   63.7712 C   0  0  0  0  0  0  0  0  0  0  0  0
  -39.7804   60.3915   63.1509 C   0  0  0  0  0  0  0  0  0  0  0  0
  -39.2086   61.1274   62.1594 O   0  0  0  0  0  0  0  0  0  0  0  0
  -41.0923   60.6465   63.5407 C   0  0  0  0  0  0  0  0  0  0  0  0
  -41.8029   61.6349   62.9345 O   0  0  0  0  0  0  0  0  0  0  0  0
  -38.3256   60.9551   61.8978 H   0  0  0  0  0  0  0  0  0  0  0  0
  -42.6859   61.8059   63.1974 H   0  0  0  0  0  0  0  0  0  0  0  0
 12 13  1  0  0  0
 13 11  1  0  0  0
 11  9  1  0  0  0
  9 10  2  0  0  0
 10  8  1  0  0  0
  8  6  1  0  0  0
  6  7  2  0  0  0
  7  5  1  0  0  0
  5  4  1  0  0  0
  4  3  1  0  0  0
  3  2  1  0  0  0
  2  1  1  0  0  0
  1 14  1  0  0  0
 14 15  1  0  0  0
 15 16  1  0  0  0
 16 17  2  0  0  0
 16 22  1  0  0  0
 17 18  1  0  0  0
 18 19  2  0  0  0
 19 20  1  0  0  0
 20 22  2  0  0  0
 20 21  1  0  0  0
 22 23  1  0  0  0
 21 24  1  0  0  0
 23 25  1  0  0  0
M  END
> <minimizedAffinity>
-8.21277

$$$$
