


 25 25  0  0  0  0  0  0  0  0999 V2000
  -45.5737   58.0226   65.9315 C   0  0  0  0  0  0  0  0  0  0  0  0
  -46.8644   58.8446   65.9201 C   0  0  0  0  0  0  0  0  0  0  0  0
  -47.7140   58.4417   64.7137 C   0  0  0  0  0  0  0  0  0  0  0  0
  -49.1862   58.7412   65.0046 C   0  0  0  0  0  0  0  0  0  0  0  0
  -49.7437   59.6637   63.9180 C   0  0  0  0  0  0  0  0  0  0  0  0
  -51.1116   58.4054   62.3345 C   0  0  0  0  0  0  0  0  0  0  0  0
  -51.0634   59.1235   63.4293 C   0  0  0  0  0  0  0  0  0  0  0  0
  -49.8364   57.9774   61.6572 C   0  0  0  0  0  0  0  0  0  0  0  0
  -48.8986   58.2584   59.4202 C   0  0  0  0  0  0  0  0  0  0  0  0
  -49.6792   58.7300   60.3613 C   0  0  0  0  0  0  0  0  0  0  0  0
  -48.2944   56.8850   59.5608 C   0  0  0  0  0  0  0  0  0  0  0  0
  -47.2312   57.8267   57.5052 C   0  0  0  0  0  0  0  0  0  0  0  0
  -47.1391   56.7311   58.5695 C   0  0  0  0  0  0  0  0  0  0  0  0
  -44.8098   58.2535   64.6262 C   0  0  0  0  0  0  0  0  0  0  0  0
  -43.3051   58.2182   64.9020 C   0  0  0  0  0  0  0  0  0  0  0  0
  -42.5951   57.5814   63.7357 C   0  0  0  0  0  0  0  0  0  0  0  0
  -42.3372   58.3200   62.5954 C   0  0  0  0  0  0  0  0  0  0  0  0
  -41.6853   57.7387   61.5244 C   0  0  0  0  0  0  0  0  0  0  0  0
  -41.2891   56.4150   61.5876 C   0  0  0  0  0  0  0  0  0  0  0  0
  -41.5433   55.6700   62.7275 C   0  0  0  0  0  0  0  0  0  0  0  0
  -41.1525   54.3683   62.7923 O   0  0  0  0  0  0  0  0  0  0  0  0
  -42.1953   56.2571   63.8084 C   0  0  0  0  0  0  0  0  0  0  0  0
  -42.4472   55.5288   64.9290 O   0  0  0  0  0  0  0  0  0  0  0  0
  -40.7138   53.9741   62.0642 H   0  0  0  0  0  0  0  0  0  0  0  0
  -42.8860   55.9246   65.6561 H   0  0  0  0  0  0  0  0  0  0  0  0
 12 13  1  0  0  0
 13 11  1  0  0  0
 11  9  1  0  0  0
  9 10  2  0  0  0
 10  8  1  0  0  0
  8  6  1  0  0  0
  6  7  2  0  0  0
  7  5  1  0  0  0
  5  4  1  0  0  0
  4  3  1  0  0  0
  3  2  1  0  0  0
  2  1  1  0  0  0
  1 14  1  0  0  0
 14 15  1  0  0  0
 15 16  1  0  0  0
 16 17  2  0  0  0
 16 22  1  0  0  0
 17 18  1  0  0  0
 18 19  2  0  0  0
 19 20  1  0  0  0
 20 22  2  0  0  0
 20 21  1  0  0  0
 22 23  1  0  0  0
 21 24  1  0  0  0
 23 25  1  0  0  0
M  END
> <minimizedAffinity>
-9.18989

$$$$



 25 25  0  0  0  0  0  0  0  0999 V2000
  -47.7157   59.1785   66.5474 C   0  0  0  0  0  0  0  0  0  0  0  0
  -48.4789   58.1307   65.7342 C   0  0  0  0  0  0  0  0  0  0  0  0
  -49.9692   58.2128   66.0686 C   0  0  0  0  0  0  0  0  0  0  0  0
  -50.6033   59.3669   65.2890 C   0  0  0  0  0  0  0  0  0  0  0  0
  -50.9416   58.8999   63.8712 C   0  0  0  0  0  0  0  0  0  0  0  0
  -49.7298   59.6204   61.8776 C   0  0  0  0  0  0  0  0  0  0  0  0
  -50.5069   59.9491   62.8800 C   0  0  0  0  0  0  0  0  0  0  0  0
  -49.4082   58.1725   61.6167 C   0  0  0  0  0  0  0  0  0  0  0  0
  -49.6397   57.6902   59.2341 C   0  0  0  0  0  0  0  0  0  0  0  0
  -50.1915   57.6914   60.4228 C   0  0  0  0  0  0  0  0  0  0  0  0
  -48.1736   58.0051   59.0842 C   0  0  0  0  0  0  0  0  0  0  0  0
  -47.4730   57.5979   56.7207 C   0  0  0  0  0  0  0  0  0  0  0  0
  -47.5303   56.9990   58.1276 C   0  0  0  0  0  0  0  0  0  0  0  0
  -46.5879   58.4983   67.3260 C   0  0  0  0  0  0  0  0  0  0  0  0
  -45.7633   57.6283   66.3748 C   0  0  0  0  0  0  0  0  0  0  0  0
  -44.3341   58.1052   66.3693 C   0  0  0  0  0  0  0  0  0  0  0  0
  -43.9742   59.2216   67.1017 C   0  0  0  0  0  0  0  0  0  0  0  0
  -42.6638   59.6607   67.0992 C   0  0  0  0  0  0  0  0  0  0  0  0
  -41.7065   58.9863   66.3630 C   0  0  0  0  0  0  0  0  0  0  0  0
  -42.0604   57.8665   65.6282 C   0  0  0  0  0  0  0  0  0  0  0  0
  -41.1197   57.2006   64.9049 O   0  0  0  0  0  0  0  0  0  0  0  0
  -43.3793   57.4210   65.6349 C   0  0  0  0  0  0  0  0  0  0  0  0
  -43.7307   56.3225   64.9144 O   0  0  0  0  0  0  0  0  0  0  0  0
  -40.2322   57.5012   64.9011 H   0  0  0  0  0  0  0  0  0  0  0  0
  -44.6186   56.0232   64.9194 H   0  0  0  0  0  0  0  0  0  0  0  0
 12 13  1  0  0  0
 13 11  1  0  0  0
 11  9  1  0  0  0
  9 10  2  0  0  0
 10  8  1  0  0  0
  8  6  1  0  0  0
  6  7  2  0  0  0
  7  5  1  0  0  0
  5  4  1  0  0  0
  4  3  1  0  0  0
  3  2  1  0  0  0
  2  1  1  0  0  0
  1 14  1  0  0  0
 14 15  1  0  0  0
 15 16  1  0  0  0
 16 17  2  0  0  0
 16 22  1  0  0  0
 17 18  1  0  0  0
 18 19  2  0  0  0
 19 20  1  0  0  0
 20 22  2  0  0  0
 20 21  1  0  0  0
 22 23  1  0  0  0
 21 24  1  0  0  0
 23 25  1  0  0  0
M  END
> <minimizedAffinity>
-8.85892

$$$$



 25 25  0  0  0  0  0  0  0  0999 V2000
  -45.1592   58.5625   65.6643 C   0  0  0  0  0  0  0  0  0  0  0  0
  -46.6123   58.1232   65.8563 C   0  0  0  0  0  0  0  0  0  0  0  0
  -47.5465   59.1853   65.2744 C   0  0  0  0  0  0  0  0  0  0  0  0
  -48.7394   58.5017   64.6026 C   0  0  0  0  0  0  0  0  0  0  0  0
  -49.2950   59.4097   63.5028 C   0  0  0  0  0  0  0  0  0  0  0  0
  -50.8028   58.1851   62.0234 C   0  0  0  0  0  0  0  0  0  0  0  0
  -50.6631   58.9253   63.0954 C   0  0  0  0  0  0  0  0  0  0  0  0
  -49.5868   57.6775   61.2943 C   0  0  0  0  0  0  0  0  0  0  0  0
  -48.7401   57.8459   59.0100 C   0  0  0  0  0  0  0  0  0  0  0  0
  -49.4772   58.3680   59.9595 C   0  0  0  0  0  0  0  0  0  0  0  0
  -48.1417   56.4745   59.1895 C   0  0  0  0  0  0  0  0  0  0  0  0
  -47.1682   57.3656   57.0679 C   0  0  0  0  0  0  0  0  0  0  0  0
  -47.1600   56.1924   58.0502 C   0  0  0  0  0  0  0  0  0  0  0  0
  -44.7356   58.3068   64.2165 C   0  0  0  0  0  0  0  0  0  0  0  0
  -43.2158   58.1410   64.1509 C   0  0  0  0  0  0  0  0  0  0  0  0
  -42.6713   58.9483   63.0012 C   0  0  0  0  0  0  0  0  0  0  0  0
  -42.8505   60.3192   62.9721 C   0  0  0  0  0  0  0  0  0  0  0  0
  -42.3514   61.0624   61.9192 C   0  0  0  0  0  0  0  0  0  0  0  0
  -41.6715   60.4381   60.8890 C   0  0  0  0  0  0  0  0  0  0  0  0
  -41.4875   59.0653   60.9129 C   0  0  0  0  0  0  0  0  0  0  0  0
  -40.8172   58.4497   59.9014 O   0  0  0  0  0  0  0  0  0  0  0  0
  -41.9857   58.3173   61.9762 C   0  0  0  0  0  0  0  0  0  0  0  0
  -41.8076   56.9694   62.0029 O   0  0  0  0  0  0  0  0  0  0  0  0
  -40.4822   58.9541   59.1863 H   0  0  0  0  0  0  0  0  0  0  0  0
  -42.1431   56.4666   62.7188 H   0  0  0  0  0  0  0  0  0  0  0  0
 12 13  1  0  0  0
 13 11  1  0  0  0
 11  9  1  0  0  0
  9 10  2  0  0  0
 10  8  1  0  0  0
  8  6  1  0  0  0
  6  7  2  0  0  0
  7  5  1  0  0  0
  5  4  1  0  0  0
  4  3  1  0  0  0
  3  2  1  0  0  0
  2  1  1  0  0  0
  1 14  1  0  0  0
 14 15  1  0  0  0
 15 16  1  0  0  0
 16 17  2  0  0  0
 16 22  1  0  0  0
 17 18  1  0  0  0
 18 19  2  0  0  0
 19 20  1  0  0  0
 20 22  2  0  0  0
 20 21  1  0  0  0
 22 23  1  0  0  0
 21 24  1  0  0  0
 23 25  1  0  0  0
M  END
> <minimizedAffinity>
-8.78506

$$$$



 25 25  0  0  0  0  0  0  0  0999 V2000
  -37.5647   59.8385   64.9423 C   0  0  0  0  0  0  0  0  0  0  0  0
  -36.3795   59.2198   64.1979 C   0  0  0  0  0  0  0  0  0  0  0  0
  -36.6824   57.7530   63.8879 C   0  0  0  0  0  0  0  0  0  0  0  0
  -36.6068   57.5256   62.3765 C   0  0  0  0  0  0  0  0  0  0  0  0
  -38.0171   57.5664   61.7832 C   0  0  0  0  0  0  0  0  0  0  0  0
  -38.9075   59.5613   60.6927 C   0  0  0  0  0  0  0  0  0  0  0  0
  -38.0581   58.5646   60.6543 C   0  0  0  0  0  0  0  0  0  0  0  0
  -39.7231   59.8091   61.9342 C   0  0  0  0  0  0  0  0  0  0  0  0
  -42.1115   60.0664   62.3727 C   0  0  0  0  0  0  0  0  0  0  0  0
  -41.1717   59.5049   61.6523 C   0  0  0  0  0  0  0  0  0  0  0  0
  -41.7571   61.1432   63.3656 C   0  0  0  0  0  0  0  0  0  0  0  0
  -42.9964   62.4999   61.6726 C   0  0  0  0  0  0  0  0  0  0  0  0
  -42.6765   62.3491   63.1613 C   0  0  0  0  0  0  0  0  0  0  0  0
  -38.4505   58.7257   65.5063 C   0  0  0  0  0  0  0  0  0  0  0  0
  -39.8509   59.2777   65.7811 C   0  0  0  0  0  0  0  0  0  0  0  0
  -40.8806   58.2402   65.4160 C   0  0  0  0  0  0  0  0  0  0  0  0
  -40.5821   57.2692   64.4777 C   0  0  0  0  0  0  0  0  0  0  0  0
  -41.5244   56.3157   64.1416 C   0  0  0  0  0  0  0  0  0  0  0  0
  -42.7708   56.3291   64.7412 C   0  0  0  0  0  0  0  0  0  0  0  0
  -43.0755   57.2983   65.6828 C   0  0  0  0  0  0  0  0  0  0  0  0
  -44.3005   57.3119   66.2752 O   0  0  0  0  0  0  0  0  0  0  0  0
  -42.1246   58.2557   66.0253 C   0  0  0  0  0  0  0  0  0  0  0  0
  -42.4202   59.2091   66.9488 O   0  0  0  0  0  0  0  0  0  0  0  0
  -44.9398   56.6671   66.0440 H   0  0  0  0  0  0  0  0  0  0  0  0
  -41.7797   59.8532   67.1789 H   0  0  0  0  0  0  0  0  0  0  0  0
 12 13  1  0  0  0
 13 11  1  0  0  0
 11  9  1  0  0  0
  9 10  2  0  0  0
 10  8  1  0  0  0
  8  6  1  0  0  0
  6  7  2  0  0  0
  7  5  1  0  0  0
  5  4  1  0  0  0
  4  3  1  0  0  0
  3  2  1  0  0  0
  2  1  1  0  0  0
  1 14  1  0  0  0
 14 15  1  0  0  0
 15 16  1  0  0  0
 16 17  2  0  0  0
 16 22  1  0  0  0
 17 18  1  0  0  0
 18 19  2  0  0  0
 19 20  1  0  0  0
 20 22  2  0  0  0
 20 21  1  0  0  0
 22 23  1  0  0  0
 21 24  1  0  0  0
 23 25  1  0  0  0
M  END
> <minimizedAffinity>
-8.69109

$$$$



 25 25  0  0  0  0  0  0  0  0999 V2000
  -46.1040   58.5730   65.9250 C   0  0  0  0  0  0  0  0  0  0  0  0
  -46.8952   58.9366   64.6667 C   0  0  0  0  0  0  0  0  0  0  0  0
  -48.0195   59.9063   65.0346 C   0  0  0  0  0  0  0  0  0  0  0  0
  -48.8580   59.3082   66.1664 C   0  0  0  0  0  0  0  0  0  0  0  0
  -50.1131   58.6559   65.5818 C   0  0  0  0  0  0  0  0  0  0  0  0
  -51.4426   59.8944   63.9507 C   0  0  0  0  0  0  0  0  0  0  0  0
  -51.1062   59.7258   65.2057 C   0  0  0  0  0  0  0  0  0  0  0  0
  -50.9718   58.9169   62.9064 C   0  0  0  0  0  0  0  0  0  0  0  0
  -49.6293   58.9870   60.8678 C   0  0  0  0  0  0  0  0  0  0  0  0
  -50.0910   59.6292   61.9128 C   0  0  0  0  0  0  0  0  0  0  0  0
  -50.1138   57.5922   60.5665 C   0  0  0  0  0  0  0  0  0  0  0  0
  -48.2609   57.8457   58.9096 C   0  0  0  0  0  0  0  0  0  0  0  0
  -49.0514   56.8462   59.7566 C   0  0  0  0  0  0  0  0  0  0  0  0
  -44.9292   57.6691   65.5459 C   0  0  0  0  0  0  0  0  0  0  0  0
  -44.1822   58.2749   64.3557 C   0  0  0  0  0  0  0  0  0  0  0  0
  -42.7321   58.4664   64.7171 C   0  0  0  0  0  0  0  0  0  0  0  0
  -42.3879   59.2356   65.8134 C   0  0  0  0  0  0  0  0  0  0  0  0
  -41.0586   59.4122   66.1478 C   0  0  0  0  0  0  0  0  0  0  0  0
  -40.0664   58.8212   65.3865 C   0  0  0  0  0  0  0  0  0  0  0  0
  -40.4047   58.0483   64.2878 C   0  0  0  0  0  0  0  0  0  0  0  0
  -39.4301   57.4646   63.5389 O   0  0  0  0  0  0  0  0  0  0  0  0
  -41.7439   57.8662   63.9540 C   0  0  0  0  0  0  0  0  0  0  0  0
  -42.0800   57.1086   62.8758 O   0  0  0  0  0  0  0  0  0  0  0  0
  -38.5290   57.5878   63.7643 H   0  0  0  0  0  0  0  0  0  0  0  0
  -42.9816   56.9865   62.6518 H   0  0  0  0  0  0  0  0  0  0  0  0
 12 13  1  0  0  0
 13 11  1  0  0  0
 11  9  1  0  0  0
  9 10  2  0  0  0
 10  8  1  0  0  0
  8  6  1  0  0  0
  6  7  2  0  0  0
  7  5  1  0  0  0
  5  4  1  0  0  0
  4  3  1  0  0  0
  3  2  1  0  0  0
  2  1  1  0  0  0
  1 14  1  0  0  0
 14 15  1  0  0  0
 15 16  1  0  0  0
 16 17  2  0  0  0
 16 22  1  0  0  0
 17 18  1  0  0  0
 18 19  2  0  0  0
 19 20  1  0  0  0
 20 22  2  0  0  0
 20 21  1  0  0  0
 22 23  1  0  0  0
 21 24  1  0  0  0
 23 25  1  0  0  0
M  END
> <minimizedAffinity>
-8.66088

$$$$



 25 25  0  0  0  0  0  0  0  0999 V2000
  -37.6827   59.2346   64.9147 C   0  0  0  0  0  0  0  0  0  0  0  0
  -37.2621   57.7805   64.6902 C   0  0  0  0  0  0  0  0  0  0  0  0
  -35.7745   57.7292   64.3385 C   0  0  0  0  0  0  0  0  0  0  0  0
  -35.6143   57.4865   62.8361 C   0  0  0  0  0  0  0  0  0  0  0  0
  -36.9955   57.3488   62.1913 C   0  0  0  0  0  0  0  0  0  0  0  0
  -38.2848   58.5412   60.4949 C   0  0  0  0  0  0  0  0  0  0  0  0
  -37.1189   58.3308   61.0543 C   0  0  0  0  0  0  0  0  0  0  0  0
  -39.5274   57.9349   61.0917 C   0  0  0  0  0  0  0  0  0  0  0  0
  -41.5297   58.9728   60.1553 C   0  0  0  0  0  0  0  0  0  0  0  0
  -40.6505   58.0032   60.0894 C   0  0  0  0  0  0  0  0  0  0  0  0
  -41.3238   60.1116   61.1206 C   0  0  0  0  0  0  0  0  0  0  0  0
  -42.4729   61.2881   63.0016 C   0  0  0  0  0  0  0  0  0  0  0  0
  -42.2498   59.9337   62.3256 C   0  0  0  0  0  0  0  0  0  0  0  0
  -39.1594   59.4009   64.5507 C   0  0  0  0  0  0  0  0  0  0  0  0
  -39.8872   58.0694   64.7485 C   0  0  0  0  0  0  0  0  0  0  0  0
  -41.2169   58.3172   65.4121 C   0  0  0  0  0  0  0  0  0  0  0  0
  -41.3644   59.3722   66.2938 C   0  0  0  0  0  0  0  0  0  0  0  0
  -42.5833   59.6025   66.9033 C   0  0  0  0  0  0  0  0  0  0  0  0
  -43.6608   58.7778   66.6349 C   0  0  0  0  0  0  0  0  0  0  0  0
  -43.5200   57.7201   65.7516 C   0  0  0  0  0  0  0  0  0  0  0  0
  -44.5795   56.9090   65.4849 O   0  0  0  0  0  0  0  0  0  0  0  0
  -42.2936   57.4913   65.1337 C   0  0  0  0  0  0  0  0  0  0  0  0
  -42.1513   56.4536   64.2663 O   0  0  0  0  0  0  0  0  0  0  0  0
  -45.4045   57.0638   65.9013 H   0  0  0  0  0  0  0  0  0  0  0  0
  -41.3256   56.3002   63.8508 H   0  0  0  0  0  0  0  0  0  0  0  0
 12 13  1  0  0  0
 13 11  1  0  0  0
 11  9  1  0  0  0
  9 10  2  0  0  0
 10  8  1  0  0  0
  8  6  1  0  0  0
  6  7  2  0  0  0
  7  5  1  0  0  0
  5  4  1  0  0  0
  4  3  1  0  0  0
  3  2  1  0  0  0
  2  1  1  0  0  0
  1 14  1  0  0  0
 14 15  1  0  0  0
 15 16  1  0  0  0
 16 17  2  0  0  0
 16 22  1  0  0  0
 17 18  1  0  0  0
 18 19  2  0  0  0
 19 20  1  0  0  0
 20 22  2  0  0  0
 20 21  1  0  0  0
 22 23  1  0  0  0
 21 24  1  0  0  0
 23 25  1  0  0  0
M  END
> <minimizedAffinity>
-8.63916

$$$$



 25 25  0  0  0  0  0  0  0  0999 V2000
  -41.2517   56.5321   61.7898 C   0  0  0  0  0  0  0  0  0  0  0  0
  -42.0655   57.7400   61.3205 C   0  0  0  0  0  0  0  0  0  0  0  0
  -41.4056   58.3486   60.0821 C   0  0  0  0  0  0  0  0  0  0  0  0
  -41.1726   59.8435   60.3117 C   0  0  0  0  0  0  0  0  0  0  0  0
  -39.6881   60.0917   60.5900 C   0  0  0  0  0  0  0  0  0  0  0  0
  -37.7815   58.5970   60.2860 C   0  0  0  0  0  0  0  0  0  0  0  0
  -38.8574   59.1380   59.7699 C   0  0  0  0  0  0  0  0  0  0  0  0
  -37.4661   58.7916   61.7456 C   0  0  0  0  0  0  0  0  0  0  0  0
  -35.8189   57.3538   62.8330 C   0  0  0  0  0  0  0  0  0  0  0  0
  -37.0282   57.4799   62.3439 C   0  0  0  0  0  0  0  0  0  0  0  0
  -34.9260   58.5617   62.9544 C   0  0  0  0  0  0  0  0  0  0  0  0
  -32.4482   58.2579   63.0594 C   0  0  0  0  0  0  0  0  0  0  0  0
  -33.6578   58.3447   62.1263 C   0  0  0  0  0  0  0  0  0  0  0  0
  -41.0425   56.6143   63.3032 C   0  0  0  0  0  0  0  0  0  0  0  0
  -40.3117   57.9138   63.6478 C   0  0  0  0  0  0  0  0  0  0  0  0
  -40.9965   58.5821   64.8116 C   0  0  0  0  0  0  0  0  0  0  0  0
  -41.7784   57.8371   65.6752 C   0  0  0  0  0  0  0  0  0  0  0  0
  -42.4070   58.4473   66.7441 C   0  0  0  0  0  0  0  0  0  0  0  0
  -42.2579   59.8063   66.9541 C   0  0  0  0  0  0  0  0  0  0  0  0
  -41.4750   60.5580   66.0933 C   0  0  0  0  0  0  0  0  0  0  0  0
  -41.3256   61.8946   66.2995 O   0  0  0  0  0  0  0  0  0  0  0  0
  -40.8375   59.9424   65.0196 C   0  0  0  0  0  0  0  0  0  0  0  0
  -40.0685   60.6770   64.1721 O   0  0  0  0  0  0  0  0  0  0  0  0
  -41.7551   62.3080   67.0224 H   0  0  0  0  0  0  0  0  0  0  0  0
  -39.6398   60.2620   63.4497 H   0  0  0  0  0  0  0  0  0  0  0  0
 12 13  1  0  0  0
 13 11  1  0  0  0
 11  9  1  0  0  0
  9 10  2  0  0  0
 10  8  1  0  0  0
  8  6  1  0  0  0
  6  7  2  0  0  0
  7  5  1  0  0  0
  5  4  1  0  0  0
  4  3  1  0  0  0
  3  2  1  0  0  0
  2  1  1  0  0  0
  1 14  1  0  0  0
 14 15  1  0  0  0
 15 16  1  0  0  0
 16 17  2  0  0  0
 16 22  1  0  0  0
 17 18  1  0  0  0
 18 19  2  0  0  0
 19 20  1  0  0  0
 20 22  2  0  0  0
 20 21  1  0  0  0
 22 23  1  0  0  0
 21 24  1  0  0  0
 23 25  1  0  0  0
M  END
> <minimizedAffinity>
-8.63394

$$$$



 25 25  0  0  0  0  0  0  0  0999 V2000
  -44.5157   58.3387   64.1640 C   0  0  0  0  0  0  0  0  0  0  0  0
  -44.4954   58.1100   65.6769 C   0  0  0  0  0  0  0  0  0  0  0  0
  -45.8025   58.6196   66.2865 C   0  0  0  0  0  0  0  0  0  0  0  0
  -46.9343   58.4633   65.2686 C   0  0  0  0  0  0  0  0  0  0  0  0
  -47.9570   59.5847   65.4666 C   0  0  0  0  0  0  0  0  0  0  0  0
  -50.3778   59.2935   65.5961 C   0  0  0  0  0  0  0  0  0  0  0  0
  -49.2014   59.0224   66.1051 C   0  0  0  0  0  0  0  0  0  0  0  0
  -50.4808   60.0227   64.2825 C   0  0  0  0  0  0  0  0  0  0  0  0
  -51.0672   58.6660   62.3386 C   0  0  0  0  0  0  0  0  0  0  0  0
  -51.4778   59.3221   63.3962 C   0  0  0  0  0  0  0  0  0  0  0  0
  -49.5923   58.4663   62.1020 C   0  0  0  0  0  0  0  0  0  0  0  0
  -48.7929   57.4822   59.9491 C   0  0  0  0  0  0  0  0  0  0  0  0
  -49.2649   58.7647   60.6375 C   0  0  0  0  0  0  0  0  0  0  0  0
  -43.1009   58.1779   63.6044 C   0  0  0  0  0  0  0  0  0  0  0  0
  -42.6352   59.5061   63.0040 C   0  0  0  0  0  0  0  0  0  0  0  0
  -41.5658   59.2452   61.9752 C   0  0  0  0  0  0  0  0  0  0  0  0
  -41.7282   58.2298   61.0506 C   0  0  0  0  0  0  0  0  0  0  0  0
  -40.7493   57.9888   60.1051 C   0  0  0  0  0  0  0  0  0  0  0  0
  -39.6022   58.7612   60.0804 C   0  0  0  0  0  0  0  0  0  0  0  0
  -39.4341   59.7807   61.0032 C   0  0  0  0  0  0  0  0  0  0  0  0
  -38.3072   60.5429   60.9791 O   0  0  0  0  0  0  0  0  0  0  0  0
  -40.4225   60.0269   61.9522 C   0  0  0  0  0  0  0  0  0  0  0  0
  -40.2609   61.0265   62.8600 O   0  0  0  0  0  0  0  0  0  0  0  0
  -37.6426   60.3764   60.3400 H   0  0  0  0  0  0  0  0  0  0  0  0
  -40.9265   61.1916   63.4985 H   0  0  0  0  0  0  0  0  0  0  0  0
 12 13  1  0  0  0
 13 11  1  0  0  0
 11  9  1  0  0  0
  9 10  2  0  0  0
 10  8  1  0  0  0
  8  6  1  0  0  0
  6  7  2  0  0  0
  7  5  1  0  0  0
  5  4  1  0  0  0
  4  3  1  0  0  0
  3  2  1  0  0  0
  2  1  1  0  0  0
  1 14  1  0  0  0
 14 15  1  0  0  0
 15 16  1  0  0  0
 16 17  2  0  0  0
 16 22  1  0  0  0
 17 18  1  0  0  0
 18 19  2  0  0  0
 19 20  1  0  0  0
 20 22  2  0  0  0
 20 21  1  0  0  0
 22 23  1  0  0  0
 21 24  1  0  0  0
 23 25  1  0  0  0
M  END
> <minimizedAffinity>
-8.62426

$$$$



 25 25  0  0  0  0  0  0  0  0999 V2000
  -46.9373   57.7916   66.3595 C   0  0  0  0  0  0  0  0  0  0  0  0
  -47.5019   59.1615   66.7417 C   0  0  0  0  0  0  0  0  0  0  0  0
  -48.7861   59.4213   65.9526 C   0  0  0  0  0  0  0  0  0  0  0  0
  -48.4349   60.0345   64.5953 C   0  0  0  0  0  0  0  0  0  0  0  0
  -48.7823   59.0431   63.4822 C   0  0  0  0  0  0  0  0  0  0  0  0
  -50.9375   58.5234   62.4589 C   0  0  0  0  0  0  0  0  0  0  0  0
  -50.2470   58.6950   63.5591 C   0  0  0  0  0  0  0  0  0  0  0  0
  -50.2383   58.5062   61.1253 C   0  0  0  0  0  0  0  0  0  0  0  0
  -49.1688   56.8127   59.7284 C   0  0  0  0  0  0  0  0  0  0  0  0
  -50.0119   57.0798   60.6955 C   0  0  0  0  0  0  0  0  0  0  0  0
  -48.3004   57.9068   59.1629 C   0  0  0  0  0  0  0  0  0  0  0  0
  -47.4993   56.0960   57.6390 C   0  0  0  0  0  0  0  0  0  0  0  0
  -47.9219   57.5644   57.7204 C   0  0  0  0  0  0  0  0  0  0  0  0
  -45.4134   57.8785   66.2550 C   0  0  0  0  0  0  0  0  0  0  0  0
  -45.0255   58.4001   64.8697 C   0  0  0  0  0  0  0  0  0  0  0  0
  -43.6521   57.8961   64.5094 C   0  0  0  0  0  0  0  0  0  0  0  0
  -43.2308   56.6567   64.9552 C   0  0  0  0  0  0  0  0  0  0  0  0
  -41.9719   56.1915   64.6254 C   0  0  0  0  0  0  0  0  0  0  0  0
  -41.1271   56.9640   63.8491 C   0  0  0  0  0  0  0  0  0  0  0  0
  -41.5437   58.2059   63.3982 C   0  0  0  0  0  0  0  0  0  0  0  0
  -40.7148   58.9664   62.6327 O   0  0  0  0  0  0  0  0  0  0  0  0
  -42.8138   58.6723   63.7260 C   0  0  0  0  0  0  0  0  0  0  0  0
  -43.2262   59.8911   63.2858 O   0  0  0  0  0  0  0  0  0  0  0  0
  -39.8602   58.6516   62.4127 H   0  0  0  0  0  0  0  0  0  0  0  0
  -44.0811   60.2044   63.5068 H   0  0  0  0  0  0  0  0  0  0  0  0
 12 13  1  0  0  0
 13 11  1  0  0  0
 11  9  1  0  0  0
  9 10  2  0  0  0
 10  8  1  0  0  0
  8  6  1  0  0  0
  6  7  2  0  0  0
  7  5  1  0  0  0
  5  4  1  0  0  0
  4  3  1  0  0  0
  3  2  1  0  0  0
  2  1  1  0  0  0
  1 14  1  0  0  0
 14 15  1  0  0  0
 15 16  1  0  0  0
 16 17  2  0  0  0
 16 22  1  0  0  0
 17 18  1  0  0  0
 18 19  2  0  0  0
 19 20  1  0  0  0
 20 22  2  0  0  0
 20 21  1  0  0  0
 22 23  1  0  0  0
 21 24  1  0  0  0
 23 25  1  0  0  0
M  END
> <minimizedAffinity>
-8.62293

$$$$
