


 21 20  0  0  0  0  0  0  0  0999 V2000
  -50.4805   57.8848   62.1415 C   0  0  0  0  0  0  0  0  0  0  0  0
  -50.8172   57.4311   60.7302 C   0  0  0  0  0  0  0  0  0  0  0  0
  -49.5944   56.9058   59.9994 C   0  0  0  0  0  0  0  0  0  0  0  0
  -48.3605   57.7447   60.3182 C   0  0  0  0  0  0  0  0  0  0  0  0
  -47.7964   58.3540   59.0422 C   0  0  0  0  0  0  0  0  0  0  0  0
  -46.8819   57.3713   58.3280 C   0  0  0  0  0  0  0  0  0  0  0  0
  -47.0838   57.4305   56.8174 C   0  0  0  0  0  0  0  0  0  0  0  0
  -47.8718   56.2186   56.3597 C   0  0  0  0  0  0  0  0  0  0  0  0
  -47.3371   55.0803   56.3627 O   0  0  0  0  0  0  0  0  0  0  0  0
  -49.0617   56.3429   55.9701 O   0  0  0  0  0  0  0  0  0  0  0  0
  -49.4672   57.1876   55.9649 H   0  0  0  0  0  0  0  0  0  0  0  0
  -50.6785   59.3793   62.1979 C   0  0  0  0  0  0  0  0  0  0  0  0
  -51.4728   59.9724   63.2825 C   0  0  0  0  0  0  0  0  0  0  0  0
  -50.7881   60.6891   64.4248 C   0  0  0  0  0  0  0  0  0  0  0  0
  -50.6592   59.7595   65.6309 C   0  0  0  0  0  0  0  0  0  0  0  0
  -49.2108   59.4817   66.0239 C   0  0  0  0  0  0  0  0  0  0  0  0
  -48.6059   58.3526   65.1852 C   0  0  0  0  0  0  0  0  0  0  0  0
  -47.2568   58.6831   64.5353 C   0  0  0  0  0  0  0  0  0  0  0  0
  -46.7342   60.0632   64.9557 C   0  0  0  0  0  0  0  0  0  0  0  0
  -45.2363   60.0560   65.2713 C   0  0  0  0  0  0  0  0  0  0  0  0
  -44.5608   58.7086   64.9890 C   0  0  0  0  0  0  0  0  0  0  0  0
  8  9  2  0  0  0
  8  7  1  0  0  0
  8 10  1  0  0  0
  7  6  1  0  0  0
  6  5  1  0  0  0
  5  4  1  0  0  0
  4  3  1  0  0  0
  3  2  1  0  0  0
  2  1  1  0  0  0
  1 12  1  0  0  0
 12 13  1  0  0  0
 13 14  1  0  0  0
 14 15  1  0  0  0
 15 16  1  0  0  0
 16 17  1  0  0  0
 17 18  1  0  0  0
 18 19  1  0  0  0
 19 20  1  0  0  0
 20 21  1  0  0  0
 10 11  1  0  0  0
M  END
> <minimizedAffinity>
-7.54588

$$$$



 21 20  0  0  0  0  0  0  0  0999 V2000
  -50.0595   60.2777   62.1282 C   0  0  0  0  0  0  0  0  0  0  0  0
  -49.4322   58.9962   61.6037 C   0  0  0  0  0  0  0  0  0  0  0  0
  -50.4130   57.8375   61.6257 C   0  0  0  0  0  0  0  0  0  0  0  0
  -50.1583   56.8791   60.4662 C   0  0  0  0  0  0  0  0  0  0  0  0
  -49.3171   57.5616   59.3966 C   0  0  0  0  0  0  0  0  0  0  0  0
  -48.0679   56.7515   59.0876 C   0  0  0  0  0  0  0  0  0  0  0  0
  -47.4262   57.2075   57.7812 C   0  0  0  0  0  0  0  0  0  0  0  0
  -47.8427   56.2795   56.6567 C   0  0  0  0  0  0  0  0  0  0  0  0
  -47.7969   55.0330   56.8175 O   0  0  0  0  0  0  0  0  0  0  0  0
  -48.2317   56.7480   55.5557 O   0  0  0  0  0  0  0  0  0  0  0  0
  -48.2686   57.6756   55.4280 H   0  0  0  0  0  0  0  0  0  0  0  0
  -51.2229   59.8881   63.0060 C   0  0  0  0  0  0  0  0  0  0  0  0
  -51.2710   60.3426   64.4025 C   0  0  0  0  0  0  0  0  0  0  0  0
  -50.1079   60.0755   65.3317 C   0  0  0  0  0  0  0  0  0  0  0  0
  -49.9412   58.5724   65.5518 C   0  0  0  0  0  0  0  0  0  0  0  0
  -48.5711   58.0508   65.1270 C   0  0  0  0  0  0  0  0  0  0  0  0
  -47.4997   59.1406   65.2193 C   0  0  0  0  0  0  0  0  0  0  0  0
  -46.8437   59.2855   66.5977 C   0  0  0  0  0  0  0  0  0  0  0  0
  -45.3585   58.9004   66.5755 C   0  0  0  0  0  0  0  0  0  0  0  0
  -45.1389   57.4114   66.2959 C   0  0  0  0  0  0  0  0  0  0  0  0
  -44.3102   57.1445   65.0335 C   0  0  0  0  0  0  0  0  0  0  0  0
  8  9  2  0  0  0
  8  7  1  0  0  0
  8 10  1  0  0  0
  7  6  1  0  0  0
  6  5  1  0  0  0
  5  4  1  0  0  0
  4  3  1  0  0  0
  3  2  1  0  0  0
  2  1  1  0  0  0
  1 12  1  0  0  0
 12 13  1  0  0  0
 13 14  1  0  0  0
 14 15  1  0  0  0
 15 16  1  0  0  0
 16 17  1  0  0  0
 17 18  1  0  0  0
 18 19  1  0  0  0
 19 20  1  0  0  0
 20 21  1  0  0  0
 10 11  1  0  0  0
M  END
> <minimizedAffinity>
-7.50641

$$$$



 21 20  0  0  0  0  0  0  0  0999 V2000
  -50.3848   58.2448   62.5780 C   0  0  0  0  0  0  0  0  0  0  0  0
  -51.0231   57.6529   61.3318 C   0  0  0  0  0  0  0  0  0  0  0  0
  -50.0020   56.9535   60.4524 C   0  0  0  0  0  0  0  0  0  0  0  0
  -48.6241   57.5933   60.5940 C   0  0  0  0  0  0  0  0  0  0  0  0
  -48.3380   58.4927   59.3996 C   0  0  0  0  0  0  0  0  0  0  0  0
  -47.2543   57.8954   58.5159 C   0  0  0  0  0  0  0  0  0  0  0  0
  -47.8462   57.3183   57.2341 C   0  0  0  0  0  0  0  0  0  0  0  0
  -47.6330   55.8173   57.2040 C   0  0  0  0  0  0  0  0  0  0  0  0
  -47.8282   55.1314   58.2398 O   0  0  0  0  0  0  0  0  0  0  0  0
  -47.2559   55.2490   56.1467 O   0  0  0  0  0  0  0  0  0  0  0  0
  -47.1084   55.7531   55.3708 H   0  0  0  0  0  0  0  0  0  0  0  0
  -51.1696   59.4787   62.9484 C   0  0  0  0  0  0  0  0  0  0  0  0
  -50.5438   60.5266   63.7664 C   0  0  0  0  0  0  0  0  0  0  0  0
  -49.0629   60.8078   63.6427 C   0  0  0  0  0  0  0  0  0  0  0  0
  -48.3478   60.4603   64.9479 C   0  0  0  0  0  0  0  0  0  0  0  0
  -47.4457   59.2346   64.8315 C   0  0  0  0  0  0  0  0  0  0  0  0
  -48.0190   58.0383   65.5959 C   0  0  0  0  0  0  0  0  0  0  0  0
  -47.0207   56.9056   65.8643 C   0  0  0  0  0  0  0  0  0  0  0  0
  -45.6206   57.4355   66.2009 C   0  0  0  0  0  0  0  0  0  0  0  0
  -44.5572   56.9680   65.2037 C   0  0  0  0  0  0  0  0  0  0  0  0
  -43.1764   57.5879   65.4505 C   0  0  0  0  0  0  0  0  0  0  0  0
  8  9  2  0  0  0
  8  7  1  0  0  0
  8 10  1  0  0  0
  7  6  1  0  0  0
  6  5  1  0  0  0
  5  4  1  0  0  0
  4  3  1  0  0  0
  3  2  1  0  0  0
  2  1  1  0  0  0
  1 12  1  0  0  0
 12 13  1  0  0  0
 13 14  1  0  0  0
 14 15  1  0  0  0
 15 16  1  0  0  0
 16 17  1  0  0  0
 17 18  1  0  0  0
 18 19  1  0  0  0
 19 20  1  0  0  0
 20 21  1  0  0  0
 10 11  1  0  0  0
M  END
> <minimizedAffinity>
-7.49095

$$$$



 21 20  0  0  0  0  0  0  0  0999 V2000
  -51.4709   59.9180   63.0915 C   0  0  0  0  0  0  0  0  0  0  0  0
  -50.6798   58.7745   62.4772 C   0  0  0  0  0  0  0  0  0  0  0  0
  -49.7411   59.2594   61.3867 C   0  0  0  0  0  0  0  0  0  0  0  0
  -48.7713   58.1591   60.9665 C   0  0  0  0  0  0  0  0  0  0  0  0
  -48.8440   57.9423   59.4614 C   0  0  0  0  0  0  0  0  0  0  0  0
  -47.5052   57.4735   58.9138 C   0  0  0  0  0  0  0  0  0  0  0  0
  -47.4726   57.5616   57.3915 C   0  0  0  0  0  0  0  0  0  0  0  0
  -47.9975   56.2706   56.7940 C   0  0  0  0  0  0  0  0  0  0  0  0
  -47.7750   55.1736   57.3674 O   0  0  0  0  0  0  0  0  0  0  0  0
  -48.6540   56.2865   55.7208 O   0  0  0  0  0  0  0  0  0  0  0  0
  -48.8240   57.0998   55.2876 H   0  0  0  0  0  0  0  0  0  0  0  0
  -50.7032   60.4071   64.2945 C   0  0  0  0  0  0  0  0  0  0  0  0
  -50.3270   59.4639   65.3564 C   0  0  0  0  0  0  0  0  0  0  0  0
  -48.8700   59.1620   65.6272 C   0  0  0  0  0  0  0  0  0  0  0  0
  -48.1116   60.4519   65.9377 C   0  0  0  0  0  0  0  0  0  0  0  0
  -46.8403   60.6164   65.1091 C   0  0  0  0  0  0  0  0  0  0  0  0
  -45.7834   59.5746   65.4857 C   0  0  0  0  0  0  0  0  0  0  0  0
  -44.3393   60.0904   65.4831 C   0  0  0  0  0  0  0  0  0  0  0  0
  -43.3204   58.9583   65.2971 C   0  0  0  0  0  0  0  0  0  0  0  0
  -42.3427   58.8456   66.4697 C   0  0  0  0  0  0  0  0  0  0  0  0
  -42.3100   60.0955   67.3576 C   0  0  0  0  0  0  0  0  0  0  0  0
  8  9  2  0  0  0
  8  7  1  0  0  0
  8 10  1  0  0  0
  7  6  1  0  0  0
  6  5  1  0  0  0
  5  4  1  0  0  0
  4  3  1  0  0  0
  3  2  1  0  0  0
  2  1  1  0  0  0
  1 12  1  0  0  0
 12 13  1  0  0  0
 13 14  1  0  0  0
 14 15  1  0  0  0
 15 16  1  0  0  0
 16 17  1  0  0  0
 17 18  1  0  0  0
 18 19  1  0  0  0
 19 20  1  0  0  0
 20 21  1  0  0  0
 10 11  1  0  0  0
M  END
> <minimizedAffinity>
-7.26534

$$$$



 21 20  0  0  0  0  0  0  0  0999 V2000
  -49.5238   60.4826   62.8177 C   0  0  0  0  0  0  0  0  0  0  0  0
  -48.5461   59.6507   63.6319 C   0  0  0  0  0  0  0  0  0  0  0  0
  -48.1148   60.3667   64.8994 C   0  0  0  0  0  0  0  0  0  0  0  0
  -47.9673   59.3883   66.0608 C   0  0  0  0  0  0  0  0  0  0  0  0
  -46.6063   59.5590   66.7210 C   0  0  0  0  0  0  0  0  0  0  0  0
  -45.4863   59.4279   65.7009 C   0  0  0  0  0  0  0  0  0  0  0  0
  -44.2244   58.8575   66.3401 C   0  0  0  0  0  0  0  0  0  0  0  0
  -43.8561   57.5507   65.6649 C   0  0  0  0  0  0  0  0  0  0  0  0
  -44.7567   56.7986   65.2121 O   0  0  0  0  0  0  0  0  0  0  0  0
  -42.6504   57.2076   65.5570 O   0  0  0  0  0  0  0  0  0  0  0  0
  -41.9736   57.7624   65.8919 H   0  0  0  0  0  0  0  0  0  0  0  0
  -50.7195   59.6134   62.5167 C   0  0  0  0  0  0  0  0  0  0  0  0
  -50.5510   58.1610   62.3713 C   0  0  0  0  0  0  0  0  0  0  0  0
  -51.2213   57.4260   61.2320 C   0  0  0  0  0  0  0  0  0  0  0  0
  -50.3897   57.5566   59.9565 C   0  0  0  0  0  0  0  0  0  0  0  0
  -49.0987   56.7432   59.9944 C   0  0  0  0  0  0  0  0  0  0  0  0
  -47.8626   57.6455   59.9503 C   0  0  0  0  0  0  0  0  0  0  0  0
  -47.6802   58.4267   58.6434 C   0  0  0  0  0  0  0  0  0  0  0  0
  -46.8030   57.6724   57.6355 C   0  0  0  0  0  0  0  0  0  0  0  0
  -47.6177   57.0225   56.5142 C   0  0  0  0  0  0  0  0  0  0  0  0
  -47.7224   55.4980   56.6422 C   0  0  0  0  0  0  0  0  0  0  0  0
  8  9  2  0  0  0
  8  7  1  0  0  0
  8 10  1  0  0  0
  7  6  1  0  0  0
  6  5  1  0  0  0
  5  4  1  0  0  0
  4  3  1  0  0  0
  3  2  1  0  0  0
  2  1  1  0  0  0
  1 12  1  0  0  0
 12 13  1  0  0  0
 13 14  1  0  0  0
 14 15  1  0  0  0
 15 16  1  0  0  0
 16 17  1  0  0  0
 17 18  1  0  0  0
 18 19  1  0  0  0
 19 20  1  0  0  0
 20 21  1  0  0  0
 10 11  1  0  0  0
M  END
> <minimizedAffinity>
-7.15570

$$$$



 21 20  0  0  0  0  0  0  0  0999 V2000
  -50.0478   58.3909   65.5743 C   0  0  0  0  0  0  0  0  0  0  0  0
  -48.5418   58.2706   65.4060 C   0  0  0  0  0  0  0  0  0  0  0  0
  -47.8028   59.3863   66.1232 C   0  0  0  0  0  0  0  0  0  0  0  0
  -46.7072   59.9765   65.2405 C   0  0  0  0  0  0  0  0  0  0  0  0
  -45.3778   59.9746   65.9824 C   0  0  0  0  0  0  0  0  0  0  0  0
  -44.2142   60.1192   65.0143 C   0  0  0  0  0  0  0  0  0  0  0  0
  -43.6042   58.7615   64.6811 C   0  0  0  0  0  0  0  0  0  0  0  0
  -42.3762   58.5290   65.5397 C   0  0  0  0  0  0  0  0  0  0  0  0
  -42.4993   58.0865   66.7104 O   0  0  0  0  0  0  0  0  0  0  0  0
  -41.2283   58.7808   65.0903 O   0  0  0  0  0  0  0  0  0  0  0  0
  -41.1282   59.1108   64.2190 H   0  0  0  0  0  0  0  0  0  0  0  0
  -50.3914   59.8597   65.5547 C   0  0  0  0  0  0  0  0  0  0  0  0
  -51.1141   60.4276   64.4084 C   0  0  0  0  0  0  0  0  0  0  0  0
  -51.2028   59.6614   63.1074 C   0  0  0  0  0  0  0  0  0  0  0  0
  -50.0777   60.0875   62.1650 C   0  0  0  0  0  0  0  0  0  0  0  0
  -49.0765   58.9712   61.8804 C   0  0  0  0  0  0  0  0  0  0  0  0
  -49.7700   57.7142   61.3485 C   0  0  0  0  0  0  0  0  0  0  0  0
  -49.2288   57.1957   60.0106 C   0  0  0  0  0  0  0  0  0  0  0  0
  -48.2177   58.1631   59.3810 C   0  0  0  0  0  0  0  0  0  0  0  0
  -47.1572   57.4451   58.5424 C   0  0  0  0  0  0  0  0  0  0  0  0
  -47.5470   57.2941   57.0670 C   0  0  0  0  0  0  0  0  0  0  0  0
  8  9  2  0  0  0
  8  7  1  0  0  0
  8 10  1  0  0  0
  7  6  1  0  0  0
  6  5  1  0  0  0
  5  4  1  0  0  0
  4  3  1  0  0  0
  3  2  1  0  0  0
  2  1  1  0  0  0
  1 12  1  0  0  0
 12 13  1  0  0  0
 13 14  1  0  0  0
 14 15  1  0  0  0
 15 16  1  0  0  0
 16 17  1  0  0  0
 17 18  1  0  0  0
 18 19  1  0  0  0
 19 20  1  0  0  0
 20 21  1  0  0  0
 10 11  1  0  0  0
M  END
> <minimizedAffinity>
-7.02391

$$$$



 21 20  0  0  0  0  0  0  0  0999 V2000
  -51.5449   60.0343   63.3657 C   0  0  0  0  0  0  0  0  0  0  0  0
  -50.6252   59.1464   62.5433 C   0  0  0  0  0  0  0  0  0  0  0  0
  -49.4182   59.9089   62.0265 C   0  0  0  0  0  0  0  0  0  0  0  0
  -49.3171   59.8142   60.5070 C   0  0  0  0  0  0  0  0  0  0  0  0
  -49.4038   58.3600   60.0651 C   0  0  0  0  0  0  0  0  0  0  0  0
  -48.0218   57.7300   59.9922 C   0  0  0  0  0  0  0  0  0  0  0  0
  -47.4670   57.7847   58.5725 C   0  0  0  0  0  0  0  0  0  0  0  0
  -47.8908   56.5441   57.8106 C   0  0  0  0  0  0  0  0  0  0  0  0
  -48.5465   56.6525   56.7429 O   0  0  0  0  0  0  0  0  0  0  0  0
  -47.5946   55.3998   58.2421 O   0  0  0  0  0  0  0  0  0  0  0  0
  -47.1063   55.3107   59.0368 H   0  0  0  0  0  0  0  0  0  0  0  0
  -50.8466   60.3273   64.6705 C   0  0  0  0  0  0  0  0  0  0  0  0
  -50.1276   59.2556   65.3731 C   0  0  0  0  0  0  0  0  0  0  0  0
  -48.8303   59.5518   66.0918 C   0  0  0  0  0  0  0  0  0  0  0  0
  -47.6397   59.1957   65.2022 C   0  0  0  0  0  0  0  0  0  0  0  0
  -46.6923   60.3692   64.9674 C   0  0  0  0  0  0  0  0  0  0  0  0
  -45.3191   60.1195   65.5966 C   0  0  0  0  0  0  0  0  0  0  0  0
  -44.2027   59.7885   64.5989 C   0  0  0  0  0  0  0  0  0  0  0  0
  -43.2334   60.9620   64.4042 C   0  0  0  0  0  0  0  0  0  0  0  0
  -42.3577   60.8037   63.1585 C   0  0  0  0  0  0  0  0  0  0  0  0
  -42.3943   62.0231   62.2293 C   0  0  0  0  0  0  0  0  0  0  0  0
  8  9  2  0  0  0
  8  7  1  0  0  0
  8 10  1  0  0  0
  7  6  1  0  0  0
  6  5  1  0  0  0
  5  4  1  0  0  0
  4  3  1  0  0  0
  3  2  1  0  0  0
  2  1  1  0  0  0
  1 12  1  0  0  0
 12 13  1  0  0  0
 13 14  1  0  0  0
 14 15  1  0  0  0
 15 16  1  0  0  0
 16 17  1  0  0  0
 17 18  1  0  0  0
 18 19  1  0  0  0
 19 20  1  0  0  0
 20 21  1  0  0  0
 10 11  1  0  0  0
M  END
> <minimizedAffinity>
-7.00489

$$$$



 21 20  0  0  0  0  0  0  0  0999 V2000
  -47.6655   59.6260   64.9170 C   0  0  0  0  0  0  0  0  0  0  0  0
  -47.5125   59.7667   66.4229 C   0  0  0  0  0  0  0  0  0  0  0  0
  -46.1406   59.3194   66.8951 C   0  0  0  0  0  0  0  0  0  0  0  0
  -45.1293   59.3483   65.7530 C   0  0  0  0  0  0  0  0  0  0  0  0
  -43.7756   58.8486   66.2381 C   0  0  0  0  0  0  0  0  0  0  0  0
  -43.0369   59.9350   67.0036 C   0  0  0  0  0  0  0  0  0  0  0  0
  -41.5542   59.9483   66.6460 C   0  0  0  0  0  0  0  0  0  0  0  0
  -41.2503   61.1503   65.7731 C   0  0  0  0  0  0  0  0  0  0  0  0
  -41.8320   61.2901   64.6669 O   0  0  0  0  0  0  0  0  0  0  0  0
  -40.4128   62.0122   66.1458 O   0  0  0  0  0  0  0  0  0  0  0  0
  -39.9752   61.9152   66.9686 H   0  0  0  0  0  0  0  0  0  0  0  0
  -48.1605   60.9480   64.3849 C   0  0  0  0  0  0  0  0  0  0  0  0
  -49.3664   60.9948   63.5468 C   0  0  0  0  0  0  0  0  0  0  0  0
  -50.6775   60.4481   64.0660 C   0  0  0  0  0  0  0  0  0  0  0  0
  -51.2775   59.4677   63.0590 C   0  0  0  0  0  0  0  0  0  0  0  0
  -50.2446   58.5223   62.4515 C   0  0  0  0  0  0  0  0  0  0  0  0
  -50.8177   57.7529   61.2583 C   0  0  0  0  0  0  0  0  0  0  0  0
  -49.7784   57.0102   60.4100 C   0  0  0  0  0  0  0  0  0  0  0  0
  -48.4568   57.7829   60.3059 C   0  0  0  0  0  0  0  0  0  0  0  0
  -47.5100   57.1942   59.2568 C   0  0  0  0  0  0  0  0  0  0  0  0
  -47.2633   58.1288   58.0663 C   0  0  0  0  0  0  0  0  0  0  0  0
  8  9  2  0  0  0
  8  7  1  0  0  0
  8 10  1  0  0  0
  7  6  1  0  0  0
  6  5  1  0  0  0
  5  4  1  0  0  0
  4  3  1  0  0  0
  3  2  1  0  0  0
  2  1  1  0  0  0
  1 12  1  0  0  0
 12 13  1  0  0  0
 13 14  1  0  0  0
 14 15  1  0  0  0
 15 16  1  0  0  0
 16 17  1  0  0  0
 17 18  1  0  0  0
 18 19  1  0  0  0
 19 20  1  0  0  0
 20 21  1  0  0  0
 10 11  1  0  0  0
M  END
> <minimizedAffinity>
-6.90523

$$$$



 21 20  0  0  0  0  0  0  0  0999 V2000
  -46.2842   57.4260   65.3779 C   0  0  0  0  0  0  0  0  0  0  0  0
  -45.0837   57.6794   64.4805 C   0  0  0  0  0  0  0  0  0  0  0  0
  -43.8086   57.0996   65.0664 C   0  0  0  0  0  0  0  0  0  0  0  0
  -42.7581   58.1853   65.2800 C   0  0  0  0  0  0  0  0  0  0  0  0
  -42.5114   58.3912   66.7680 C   0  0  0  0  0  0  0  0  0  0  0  0
  -41.6189   59.5983   67.0097 C   0  0  0  0  0  0  0  0  0  0  0  0
  -42.0532   60.7834   66.1534 C   0  0  0  0  0  0  0  0  0  0  0  0
  -40.8334   61.4484   65.5459 C   0  0  0  0  0  0  0  0  0  0  0  0
  -40.8983   61.9575   64.3978 O   0  0  0  0  0  0  0  0  0  0  0  0
  -39.7488   61.4918   66.1823 O   0  0  0  0  0  0  0  0  0  0  0  0
  -39.6924   61.1148   67.0382 H   0  0  0  0  0  0  0  0  0  0  0  0
  -46.4183   58.6102   66.3028 C   0  0  0  0  0  0  0  0  0  0  0  0
  -46.1074   59.9604   65.8137 C   0  0  0  0  0  0  0  0  0  0  0  0
  -47.0773   60.6851   64.9073 C   0  0  0  0  0  0  0  0  0  0  0  0
  -48.5118   60.2624   65.2220 C   0  0  0  0  0  0  0  0  0  0  0  0
  -49.5550   61.0209   64.4058 C   0  0  0  0  0  0  0  0  0  0  0  0
  -50.8924   60.2765   64.3695 C   0  0  0  0  0  0  0  0  0  0  0  0
  -51.2832   59.7186   62.9956 C   0  0  0  0  0  0  0  0  0  0  0  0
  -50.5321   58.4228   62.6618 C   0  0  0  0  0  0  0  0  0  0  0  0
  -49.3123   58.6613   61.7681 C   0  0  0  0  0  0  0  0  0  0  0  0
  -49.4158   59.9373   60.9239 C   0  0  0  0  0  0  0  0  0  0  0  0
  8  9  2  0  0  0
  8  7  1  0  0  0
  8 10  1  0  0  0
  7  6  1  0  0  0
  6  5  1  0  0  0
  5  4  1  0  0  0
  4  3  1  0  0  0
  3  2  1  0  0  0
  2  1  1  0  0  0
  1 12  1  0  0  0
 12 13  1  0  0  0
 13 14  1  0  0  0
 14 15  1  0  0  0
 15 16  1  0  0  0
 16 17  1  0  0  0
 17 18  1  0  0  0
 18 19  1  0  0  0
 19 20  1  0  0  0
 20 21  1  0  0  0
 10 11  1  0  0  0
M  END
> <minimizedAffinity>
-6.74327

$$$$
