


 17 16  0  0  0  0  0  0  0  0999 V2000
  -49.6014   57.0437   59.5112 C   0  0  0  0  0  0  0  0  0  0  0  0
  -49.2698   55.7792   60.2610 C   0  0  0  0  0  0  0  0  0  0  0  0
  -50.4846   57.8807   59.9976 C   0  0  0  0  0  0  0  0  0  0  0  0
  -48.9160   57.3467   58.2035 C   0  0  0  0  0  0  0  0  0  0  0  0
  -47.7299   56.3991   58.0171 C   0  0  0  0  0  0  0  0  0  0  0  0
  -45.7263   57.4273   59.7087 C   0  0  0  0  0  0  0  0  0  0  0  0
  -45.6351   57.6370   58.2197 C   0  0  0  0  0  0  0  0  0  0  0  0
  -44.4715   58.3962   57.6354 C   0  0  0  0  0  0  0  0  0  0  0  0
  -46.5671   57.1579   57.4333 C   0  0  0  0  0  0  0  0  0  0  0  0
  -51.2588   57.5220   61.2397 C   0  0  0  0  0  0  0  0  0  0  0  0
  -51.3048   58.7291   62.1781 C   0  0  0  0  0  0  0  0  0  0  0  0
  -50.3274   58.5254   63.3068 C   0  0  0  0  0  0  0  0  0  0  0  0
  -48.8832   58.2193   63.0069 C   0  0  0  0  0  0  0  0  0  0  0  0
  -50.7339   58.6145   64.5495 C   0  0  0  0  0  0  0  0  0  0  0  0
  -49.7565   58.4108   65.6781 C   0  0  0  0  0  0  0  0  0  0  0  0
  -49.5360   59.6536   66.3470 O   0  0  0  0  0  0  0  0  0  0  0  0
  -49.1752   60.2991   65.7192 H   0  0  0  0  0  0  0  0  0  0  0  0
  6  7  1  0  0  0
  7  9  2  0  0  0
  7  8  1  0  0  0
  9  5  1  0  0  0
  5  4  1  0  0  0
  4  1  1  0  0  0
  1  3  2  0  0  0
  1  2  1  0  0  0
  3 10  1  0  0  0
 10 11  1  0  0  0
 11 12  1  0  0  0
 12 13  1  0  0  0
 12 14  2  0  0  0
 14 15  1  0  0  0
 15 16  1  0  0  0
 16 17  1  0  0  0
M  END
> <minimizedAffinity>
-8.56150

$$$$



 17 16  0  0  0  0  0  0  0  0999 V2000
  -49.9376   57.3955   61.1103 C   0  0  0  0  0  0  0  0  0  0  0  0
  -51.4322   57.5863   61.0760 C   0  0  0  0  0  0  0  0  0  0  0  0
  -49.2055   58.1084   61.9305 C   0  0  0  0  0  0  0  0  0  0  0  0
  -49.2856   56.3838   60.2033 C   0  0  0  0  0  0  0  0  0  0  0  0
  -49.0269   57.0165   58.8350 C   0  0  0  0  0  0  0  0  0  0  0  0
  -47.4416   56.7280   56.5248 C   0  0  0  0  0  0  0  0  0  0  0  0
  -46.8957   57.4540   57.7267 C   0  0  0  0  0  0  0  0  0  0  0  0
  -45.5018   58.0263   57.6924 C   0  0  0  0  0  0  0  0  0  0  0  0
  -47.6339   57.5884   58.8008 C   0  0  0  0  0  0  0  0  0  0  0  0
  -49.8393   59.2039   62.7484 C   0  0  0  0  0  0  0  0  0  0  0  0
  -48.9286   59.5522   63.9271 C   0  0  0  0  0  0  0  0  0  0  0  0
  -49.0161   58.4658   64.9676 C   0  0  0  0  0  0  0  0  0  0  0  0
  -50.3135   58.2193   65.6923 C   0  0  0  0  0  0  0  0  0  0  0  0
  -47.9632   57.7355   65.2423 C   0  0  0  0  0  0  0  0  0  0  0  0
  -48.0507   56.6491   66.2828 C   0  0  0  0  0  0  0  0  0  0  0  0
  -46.7340   56.2329   66.6484 O   0  0  0  0  0  0  0  0  0  0  0  0
  -46.2728   55.8942   65.8652 H   0  0  0  0  0  0  0  0  0  0  0  0
  6  7  1  0  0  0
  7  9  2  0  0  0
  7  8  1  0  0  0
  9  5  1  0  0  0
  5  4  1  0  0  0
  4  1  1  0  0  0
  1  3  2  0  0  0
  1  2  1  0  0  0
  3 10  1  0  0  0
 10 11  1  0  0  0
 11 12  1  0  0  0
 12 13  1  0  0  0
 12 14  2  0  0  0
 14 15  1  0  0  0
 15 16  1  0  0  0
 16 17  1  0  0  0
M  END
> <minimizedAffinity>
-8.39493

$$$$



 17 16  0  0  0  0  0  0  0  0999 V2000
  -50.6118   58.5749   61.4270 C   0  0  0  0  0  0  0  0  0  0  0  0
  -49.9023   59.8263   60.9777 C   0  0  0  0  0  0  0  0  0  0  0  0
  -51.3547   58.5954   62.5062 C   0  0  0  0  0  0  0  0  0  0  0  0
  -50.4687   57.3011   60.6342 C   0  0  0  0  0  0  0  0  0  0  0  0
  -48.9987   57.0896   60.2685 C   0  0  0  0  0  0  0  0  0  0  0  0
  -46.4832   57.2865   59.0168 C   0  0  0  0  0  0  0  0  0  0  0  0
  -47.7070   56.9612   58.2005 C   0  0  0  0  0  0  0  0  0  0  0  0
  -47.5849   56.7406   56.7146 C   0  0  0  0  0  0  0  0  0  0  0  0
  -48.8767   56.8692   58.7836 C   0  0  0  0  0  0  0  0  0  0  0  0
  -51.4010   59.8319   63.3661 C   0  0  0  0  0  0  0  0  0  0  0  0
  -51.0136   59.4699   64.8010 C   0  0  0  0  0  0  0  0  0  0  0  0
  -49.5128   59.4866   64.9355 C   0  0  0  0  0  0  0  0  0  0  0  0
  -48.7205   60.6471   64.3926 C   0  0  0  0  0  0  0  0  0  0  0  0
  -48.8968   58.4913   65.5247 C   0  0  0  0  0  0  0  0  0  0  0  0
  -47.3961   58.5079   65.6592 C   0  0  0  0  0  0  0  0  0  0  0  0
  -47.0416   58.8851   66.9907 O   0  0  0  0  0  0  0  0  0  0  0  0
  -47.3933   59.7689   67.1808 H   0  0  0  0  0  0  0  0  0  0  0  0
  6  7  1  0  0  0
  7  9  2  0  0  0
  7  8  1  0  0  0
  9  5  1  0  0  0
  5  4  1  0  0  0
  4  1  1  0  0  0
  1  3  2  0  0  0
  1  2  1  0  0  0
  3 10  1  0  0  0
 10 11  1  0  0  0
 11 12  1  0  0  0
 12 13  1  0  0  0
 12 14  2  0  0  0
 14 15  1  0  0  0
 15 16  1  0  0  0
 16 17  1  0  0  0
M  END
> <minimizedAffinity>
-8.38417

$$$$



 17 16  0  0  0  0  0  0  0  0999 V2000
  -50.8615   59.0719   62.0234 C   0  0  0  0  0  0  0  0  0  0  0  0
  -49.9085   59.9634   61.2694 C   0  0  0  0  0  0  0  0  0  0  0  0
  -51.1763   57.8947   61.5417 C   0  0  0  0  0  0  0  0  0  0  0  0
  -51.4504   59.5333   63.3318 C   0  0  0  0  0  0  0  0  0  0  0  0
  -50.7705   58.7955   64.4863 C   0  0  0  0  0  0  0  0  0  0  0  0
  -48.0514   58.2028   64.0520 C   0  0  0  0  0  0  0  0  0  0  0  0
  -48.4379   59.3980   64.8837 C   0  0  0  0  0  0  0  0  0  0  0  0
  -47.3698   60.2767   65.4825 C   0  0  0  0  0  0  0  0  0  0  0  0
  -49.7030   59.6735   65.0847 C   0  0  0  0  0  0  0  0  0  0  0  0
  -50.6861   57.4827   60.1777 C   0  0  0  0  0  0  0  0  0  0  0  0
  -49.6151   56.4006   60.3262 C   0  0  0  0  0  0  0  0  0  0  0  0
  -48.4891   56.6728   59.3625 C   0  0  0  0  0  0  0  0  0  0  0  0
  -47.1792   57.2178   59.8687 C   0  0  0  0  0  0  0  0  0  0  0  0
  -48.6496   56.4355   58.0837 C   0  0  0  0  0  0  0  0  0  0  0  0
  -47.5236   56.7077   57.1200 C   0  0  0  0  0  0  0  0  0  0  0  0
  -47.0180   55.4700   56.6169 O   0  0  0  0  0  0  0  0  0  0  0  0
  -46.6899   54.9313   57.3539 H   0  0  0  0  0  0  0  0  0  0  0  0
  6  7  1  0  0  0
  7  9  2  0  0  0
  7  8  1  0  0  0
  9  5  1  0  0  0
  5  4  1  0  0  0
  4  1  1  0  0  0
  1  3  2  0  0  0
  1  2  1  0  0  0
  3 10  1  0  0  0
 10 11  1  0  0  0
 11 12  1  0  0  0
 12 13  1  0  0  0
 12 14  2  0  0  0
 14 15  1  0  0  0
 15 16  1  0  0  0
 16 17  1  0  0  0
M  END
> <minimizedAffinity>
-8.32009

$$$$



 17 16  0  0  0  0  0  0  0  0999 V2000
  -50.3474   58.0009   60.7217 C   0  0  0  0  0  0  0  0  0  0  0  0
  -49.8609   59.3794   60.3552 C   0  0  0  0  0  0  0  0  0  0  0  0
  -49.8652   56.9509   60.1037 C   0  0  0  0  0  0  0  0  0  0  0  0
  -51.3865   57.8299   61.8000 C   0  0  0  0  0  0  0  0  0  0  0  0
  -51.3401   59.0288   62.7486 C   0  0  0  0  0  0  0  0  0  0  0  0
  -49.1652   60.4138   63.8821 C   0  0  0  0  0  0  0  0  0  0  0  0
  -49.7700   59.2395   64.6066 C   0  0  0  0  0  0  0  0  0  0  0  0
  -49.2116   58.8065   65.9378 C   0  0  0  0  0  0  0  0  0  0  0  0
  -50.7821   58.5960   64.0790 C   0  0  0  0  0  0  0  0  0  0  0  0
  -48.9191   57.1272   58.9441 C   0  0  0  0  0  0  0  0  0  0  0  0
  -47.4765   57.0587   59.4482 C   0  0  0  0  0  0  0  0  0  0  0  0
  -46.5332   57.3693   58.3148 C   0  0  0  0  0  0  0  0  0  0  0  0
  -46.9397   57.0761   56.8942 C   0  0  0  0  0  0  0  0  0  0  0  0
  -45.3589   57.8945   58.5652 C   0  0  0  0  0  0  0  0  0  0  0  0
  -44.4157   58.2051   57.4318 C   0  0  0  0  0  0  0  0  0  0  0  0
  -43.1691   58.6596   57.9611 O   0  0  0  0  0  0  0  0  0  0  0  0
  -43.3146   59.4600   58.4893 H   0  0  0  0  0  0  0  0  0  0  0  0
  6  7  1  0  0  0
  7  9  2  0  0  0
  7  8  1  0  0  0
  9  5  1  0  0  0
  5  4  1  0  0  0
  4  1  1  0  0  0
  1  3  2  0  0  0
  1  2  1  0  0  0
  3 10  1  0  0  0
 10 11  1  0  0  0
 11 12  1  0  0  0
 12 13  1  0  0  0
 12 14  2  0  0  0
 14 15  1  0  0  0
 15 16  1  0  0  0
 16 17  1  0  0  0
M  END
> <minimizedAffinity>
-8.23281

$$$$



 17 16  0  0  0  0  0  0  0  0999 V2000
  -50.9627   58.7017   61.7967 C   0  0  0  0  0  0  0  0  0  0  0  0
  -51.6371   57.4427   61.3156 C   0  0  0  0  0  0  0  0  0  0  0  0
  -49.9719   59.2165   61.1108 C   0  0  0  0  0  0  0  0  0  0  0  0
  -51.4289   59.3696   63.0648 C   0  0  0  0  0  0  0  0  0  0  0  0
  -50.2159   59.8176   63.8817 C   0  0  0  0  0  0  0  0  0  0  0  0
  -47.7900   58.3910   63.9956 C   0  0  0  0  0  0  0  0  0  0  0  0
  -48.8427   58.1715   65.0507 C   0  0  0  0  0  0  0  0  0  0  0  0
  -48.5974   57.1893   66.1672 C   0  0  0  0  0  0  0  0  0  0  0  0
  -49.9708   58.8360   64.9974 C   0  0  0  0  0  0  0  0  0  0  0  0
  -49.4250   58.4854   59.9120 C   0  0  0  0  0  0  0  0  0  0  0  0
  -48.2929   57.5564   60.3540 C   0  0  0  0  0  0  0  0  0  0  0  0
  -47.6654   56.9175   59.1421 C   0  0  0  0  0  0  0  0  0  0  0  0
  -46.4331   57.5240   58.5234 C   0  0  0  0  0  0  0  0  0  0  0  0
  -48.1920   55.8340   58.6262 C   0  0  0  0  0  0  0  0  0  0  0  0
  -47.5645   55.1950   57.4143 C   0  0  0  0  0  0  0  0  0  0  0  0
  -48.1112   55.7796   56.2311 O   0  0  0  0  0  0  0  0  0  0  0  0
  -49.0703   55.6355   56.2127 H   0  0  0  0  0  0  0  0  0  0  0  0
  6  7  1  0  0  0
  7  9  2  0  0  0
  7  8  1  0  0  0
  9  5  1  0  0  0
  5  4  1  0  0  0
  4  1  1  0  0  0
  1  3  2  0  0  0
  1  2  1  0  0  0
  3 10  1  0  0  0
 10 11  1  0  0  0
 11 12  1  0  0  0
 12 13  1  0  0  0
 12 14  2  0  0  0
 14 15  1  0  0  0
 15 16  1  0  0  0
 16 17  1  0  0  0
M  END
> <minimizedAffinity>
-8.08882

$$$$



 17 16  0  0  0  0  0  0  0  0999 V2000
  -50.1826   57.9631   61.9690 C   0  0  0  0  0  0  0  0  0  0  0  0
  -51.5482   58.5847   62.1106 C   0  0  0  0  0  0  0  0  0  0  0  0
  -49.2563   58.2078   62.8629 C   0  0  0  0  0  0  0  0  0  0  0  0
  -49.8831   57.0588   60.8011 C   0  0  0  0  0  0  0  0  0  0  0  0
  -48.5742   57.4945   60.1404 C   0  0  0  0  0  0  0  0  0  0  0  0
  -46.1846   57.4772   58.6497 C   0  0  0  0  0  0  0  0  0  0  0  0
  -47.4879   57.1139   57.9871 C   0  0  0  0  0  0  0  0  0  0  0  0
  -47.5127   56.7406   56.5271 C   0  0  0  0  0  0  0  0  0  0  0  0
  -48.5991   57.1216   58.6813 C   0  0  0  0  0  0  0  0  0  0  0  0
  -49.5142   59.2059   63.9620 C   0  0  0  0  0  0  0  0  0  0  0  0
  -49.6570   58.4704   65.2956 C   0  0  0  0  0  0  0  0  0  0  0  0
  -48.2931   58.2543   65.8986 C   0  0  0  0  0  0  0  0  0  0  0  0
  -47.3389   59.4116   66.0381 C   0  0  0  0  0  0  0  0  0  0  0  0
  -47.9369   57.0592   66.3016 C   0  0  0  0  0  0  0  0  0  0  0  0
  -46.5730   56.8431   66.9046 C   0  0  0  0  0  0  0  0  0  0  0  0
  -45.6948   56.3049   65.9148 O   0  0  0  0  0  0  0  0  0  0  0  0
  -46.0458   55.4583   65.5971 H   0  0  0  0  0  0  0  0  0  0  0  0
  6  7  1  0  0  0
  7  9  2  0  0  0
  7  8  1  0  0  0
  9  5  1  0  0  0
  5  4  1  0  0  0
  4  1  1  0  0  0
  1  3  2  0  0  0
  1  2  1  0  0  0
  3 10  1  0  0  0
 10 11  1  0  0  0
 11 12  1  0  0  0
 12 13  1  0  0  0
 12 14  2  0  0  0
 14 15  1  0  0  0
 15 16  1  0  0  0
 16 17  1  0  0  0
M  END
> <minimizedAffinity>
-8.02557

$$$$



 17 16  0  0  0  0  0  0  0  0999 V2000
  -50.3369   59.0210   64.2263 C   0  0  0  0  0  0  0  0  0  0  0  0
  -49.8267   60.3302   63.6814 C   0  0  0  0  0  0  0  0  0  0  0  0
  -51.0257   58.2154   63.4558 C   0  0  0  0  0  0  0  0  0  0  0  0
  -50.0532   58.6374   65.6559 C   0  0  0  0  0  0  0  0  0  0  0  0
  -48.6430   59.0915   66.0363 C   0  0  0  0  0  0  0  0  0  0  0  0
  -46.0323   59.9433   65.4104 C   0  0  0  0  0  0  0  0  0  0  0  0
  -46.4220   58.5017   65.2112 C   0  0  0  0  0  0  0  0  0  0  0  0
  -45.4148   57.5156   64.6777 C   0  0  0  0  0  0  0  0  0  0  0  0
  -47.6365   58.1061   65.5031 C   0  0  0  0  0  0  0  0  0  0  0  0
  -51.4143   58.6504   62.0664 C   0  0  0  0  0  0  0  0  0  0  0  0
  -51.3894   57.4424   61.1282 C   0  0  0  0  0  0  0  0  0  0  0  0
  -50.1077   57.4482   60.3358 C   0  0  0  0  0  0  0  0  0  0  0  0
  -49.5188   58.7523   59.8649 C   0  0  0  0  0  0  0  0  0  0  0  0
  -49.5053   56.3185   60.0562 C   0  0  0  0  0  0  0  0  0  0  0  0
  -48.2236   56.3242   59.2638 C   0  0  0  0  0  0  0  0  0  0  0  0
  -47.9038   54.9900   58.8662 O   0  0  0  0  0  0  0  0  0  0  0  0
  -47.7943   54.4352   59.6544 H   0  0  0  0  0  0  0  0  0  0  0  0
  6  7  1  0  0  0
  7  9  2  0  0  0
  7  8  1  0  0  0
  9  5  1  0  0  0
  5  4  1  0  0  0
  4  1  1  0  0  0
  1  3  2  0  0  0
  1  2  1  0  0  0
  3 10  1  0  0  0
 10 11  1  0  0  0
 11 12  1  0  0  0
 12 13  1  0  0  0
 12 14  2  0  0  0
 14 15  1  0  0  0
 15 16  1  0  0  0
 16 17  1  0  0  0
M  END
> <minimizedAffinity>
-7.86216

$$$$



 17 16  0  0  0  0  0  0  0  0999 V2000
  -50.2287   59.5566   64.0729 C   0  0  0  0  0  0  0  0  0  0  0  0
  -50.6805   58.6672   65.2025 C   0  0  0  0  0  0  0  0  0  0  0  0
  -49.1610   60.3030   64.2144 C   0  0  0  0  0  0  0  0  0  0  0  0
  -51.0032   59.5860   62.7803 C   0  0  0  0  0  0  0  0  0  0  0  0
  -51.0768   58.1740   62.1968 C   0  0  0  0  0  0  0  0  0  0  0  0
  -50.3774   57.9071   59.4815 C   0  0  0  0  0  0  0  0  0  0  0  0
  -49.3679   57.5894   60.5537 C   0  0  0  0  0  0  0  0  0  0  0  0
  -47.9840   57.1296   60.1733 C   0  0  0  0  0  0  0  0  0  0  0  0
  -49.6938   57.7144   61.8166 C   0  0  0  0  0  0  0  0  0  0  0  0
  -48.4574   60.3674   65.5454 C   0  0  0  0  0  0  0  0  0  0  0  0
  -46.9515   60.2001   65.3346 C   0  0  0  0  0  0  0  0  0  0  0  0
  -46.4735   58.9777   66.0747 C   0  0  0  0  0  0  0  0  0  0  0  0
  -45.0094   58.8109   66.3879 C   0  0  0  0  0  0  0  0  0  0  0  0
  -47.3316   58.0594   66.4459 C   0  0  0  0  0  0  0  0  0  0  0  0
  -46.8535   56.8369   67.1861 C   0  0  0  0  0  0  0  0  0  0  0  0
  -47.2362   55.6643   66.4656 O   0  0  0  0  0  0  0  0  0  0  0  0
  -48.2023   55.6358   66.3840 H   0  0  0  0  0  0  0  0  0  0  0  0
  6  7  1  0  0  0
  7  9  2  0  0  0
  7  8  1  0  0  0
  9  5  1  0  0  0
  5  4  1  0  0  0
  4  1  1  0  0  0
  1  3  2  0  0  0
  1  2  1  0  0  0
  3 10  1  0  0  0
 10 11  1  0  0  0
 11 12  1  0  0  0
 12 13  1  0  0  0
 12 14  2  0  0  0
 14 15  1  0  0  0
 15 16  1  0  0  0
 16 17  1  0  0  0
M  END
> <minimizedAffinity>
-7.83708

$$$$
