


 17 16  0  0  0  0  0  0  0  0999 V2000
  -50.1961   58.9822   61.5684 C   0  0  0  0  0  0  0  0  0  0  0  0
  -51.0107   57.7251   61.7342 C   0  0  0  0  0  0  0  0  0  0  0  0
  -50.2672   59.9317   62.4687 C   0  0  0  0  0  0  0  0  0  0  0  0
  -49.2986   59.1465   60.3688 C   0  0  0  0  0  0  0  0  0  0  0  0
  -48.5235   57.8497   60.1296 C   0  0  0  0  0  0  0  0  0  0  0  0
  -46.4191   57.9342   58.2594 C   0  0  0  0  0  0  0  0  0  0  0  0
  -47.7736   57.4204   57.8459 C   0  0  0  0  0  0  0  0  0  0  0  0
  -48.0022   56.9510   56.4321 C   0  0  0  0  0  0  0  0  0  0  0  0
  -48.7519   57.3808   58.7166 C   0  0  0  0  0  0  0  0  0  0  0  0
  -51.2535   59.8229   63.6027 C   0  0  0  0  0  0  0  0  0  0  0  0
  -50.6381   60.4140   64.8723 C   0  0  0  0  0  0  0  0  0  0  0  0
  -49.8022   59.3659   65.5603 C   0  0  0  0  0  0  0  0  0  0  0  0
  -50.4420   58.0920   66.0473 C   0  0  0  0  0  0  0  0  0  0  0  0
  -48.5184   59.5627   65.7351 C   0  0  0  0  0  0  0  0  0  0  0  0
  -47.6826   58.5146   66.4231 C   0  0  0  0  0  0  0  0  0  0  0  0
  -47.0841   59.0753   67.5928 O   0  0  0  0  0  0  0  0  0  0  0  0
  -46.5211   59.8239   67.3407 H   0  0  0  0  0  0  0  0  0  0  0  0
  6  7  1  0  0  0
  7  9  2  0  0  0
  7  8  1  0  0  0
  9  5  1  0  0  0
  5  4  1  0  0  0
  4  1  1  0  0  0
  1  3  2  0  0  0
  1  2  1  0  0  0
  3 10  1  0  0  0
 10 11  1  0  0  0
 11 12  1  0  0  0
 12 13  1  0  0  0
 12 14  2  0  0  0
 14 15  1  0  0  0
 15 16  1  0  0  0
 16 17  1  0  0  0
M  END
> <minimizedAffinity>
-8.68155

$$$$



 17 16  0  0  0  0  0  0  0  0999 V2000
  -50.1908   58.7497   61.6526 C   0  0  0  0  0  0  0  0  0  0  0  0
  -49.6664   60.0964   61.2251 C   0  0  0  0  0  0  0  0  0  0  0  0
  -50.9530   58.6510   62.7139 C   0  0  0  0  0  0  0  0  0  0  0  0
  -49.8405   57.5174   60.8587 C   0  0  0  0  0  0  0  0  0  0  0  0
  -48.5549   57.7673   60.0685 C   0  0  0  0  0  0  0  0  0  0  0  0
  -46.4311   57.9741   58.2301 C   0  0  0  0  0  0  0  0  0  0  0  0
  -47.7597   57.4196   57.7863 C   0  0  0  0  0  0  0  0  0  0  0  0
  -47.9519   56.9749   56.3591 C   0  0  0  0  0  0  0  0  0  0  0  0
  -48.7470   57.3231   58.6422 C   0  0  0  0  0  0  0  0  0  0  0  0
  -51.2035   59.8604   63.5771 C   0  0  0  0  0  0  0  0  0  0  0  0
  -50.9192   59.5111   65.0390 C   0  0  0  0  0  0  0  0  0  0  0  0
  -49.4301   59.4792   65.2673 C   0  0  0  0  0  0  0  0  0  0  0  0
  -48.5503   60.5348   64.6501 C   0  0  0  0  0  0  0  0  0  0  0  0
  -48.9003   58.5328   66.0029 C   0  0  0  0  0  0  0  0  0  0  0  0
  -47.4111   58.5008   66.2312 C   0  0  0  0  0  0  0  0  0  0  0  0
  -47.1215   58.9692   67.5492 O   0  0  0  0  0  0  0  0  0  0  0  0
  -47.4443   59.8787   67.6474 H   0  0  0  0  0  0  0  0  0  0  0  0
  6  7  1  0  0  0
  7  9  2  0  0  0
  7  8  1  0  0  0
  9  5  1  0  0  0
  5  4  1  0  0  0
  4  1  1  0  0  0
  1  3  2  0  0  0
  1  2  1  0  0  0
  3 10  1  0  0  0
 10 11  1  0  0  0
 11 12  1  0  0  0
 12 13  1  0  0  0
 12 14  2  0  0  0
 14 15  1  0  0  0
 15 16  1  0  0  0
 16 17  1  0  0  0
M  END
> <minimizedAffinity>
-8.58311

$$$$



 17 16  0  0  0  0  0  0  0  0999 V2000
  -50.6933   59.0916   62.3205 C   0  0  0  0  0  0  0  0  0  0  0  0
  -49.7254   60.0436   61.6662 C   0  0  0  0  0  0  0  0  0  0  0  0
  -50.9630   57.9408   61.7547 C   0  0  0  0  0  0  0  0  0  0  0  0
  -51.3493   59.4619   63.6259 C   0  0  0  0  0  0  0  0  0  0  0  0
  -50.2736   59.7800   64.6657 C   0  0  0  0  0  0  0  0  0  0  0  0
  -47.6172   58.8612   64.4858 C   0  0  0  0  0  0  0  0  0  0  0  0
  -48.6298   58.0847   65.2866 C   0  0  0  0  0  0  0  0  0  0  0  0
  -48.2211   56.8169   65.9918 C   0  0  0  0  0  0  0  0  0  0  0  0
  -49.8652   58.5130   65.3704 C   0  0  0  0  0  0  0  0  0  0  0  0
  -50.4042   57.6214   60.3922 C   0  0  0  0  0  0  0  0  0  0  0  0
  -49.2980   56.5736   60.5276 C   0  0  0  0  0  0  0  0  0  0  0  0
  -48.3026   56.7467   59.4096 C   0  0  0  0  0  0  0  0  0  0  0  0
  -47.7239   58.1069   59.1197 C   0  0  0  0  0  0  0  0  0  0  0  0
  -47.9405   55.7136   58.6892 C   0  0  0  0  0  0  0  0  0  0  0  0
  -46.9452   55.8866   57.5711 C   0  0  0  0  0  0  0  0  0  0  0  0
  -47.3208   55.0610   56.4675 O   0  0  0  0  0  0  0  0  0  0  0  0
  -47.3340   54.1326   56.7480 H   0  0  0  0  0  0  0  0  0  0  0  0
  6  7  1  0  0  0
  7  9  2  0  0  0
  7  8  1  0  0  0
  9  5  1  0  0  0
  5  4  1  0  0  0
  4  1  1  0  0  0
  1  3  2  0  0  0
  1  2  1  0  0  0
  3 10  1  0  0  0
 10 11  1  0  0  0
 11 12  1  0  0  0
 12 13  1  0  0  0
 12 14  2  0  0  0
 14 15  1  0  0  0
 15 16  1  0  0  0
 16 17  1  0  0  0
M  END
> <minimizedAffinity>
-8.54996

$$$$



 17 16  0  0  0  0  0  0  0  0999 V2000
  -49.7754   59.4254   65.8019 C   0  0  0  0  0  0  0  0  0  0  0  0
  -50.0777   58.0054   66.2060 C   0  0  0  0  0  0  0  0  0  0  0  0
  -48.5319   59.8238   65.6909 C   0  0  0  0  0  0  0  0  0  0  0  0
  -50.9025   60.3865   65.5236 C   0  0  0  0  0  0  0  0  0  0  0  0
  -50.9785   60.6630   64.0211 C   0  0  0  0  0  0  0  0  0  0  0  0
  -49.4906   59.7519   61.8100 C   0  0  0  0  0  0  0  0  0  0  0  0
  -50.7022   58.9839   62.2702 C   0  0  0  0  0  0  0  0  0  0  0  0
  -51.1174   57.7279   61.5479 C   0  0  0  0  0  0  0  0  0  0  0  0
  -51.3935   59.4079   63.2993 C   0  0  0  0  0  0  0  0  0  0  0  0
  -47.4071   58.9023   66.0864 C   0  0  0  0  0  0  0  0  0  0  0  0
  -46.5435   58.5969   64.8613 C   0  0  0  0  0  0  0  0  0  0  0  0
  -45.2098   58.0571   65.3089 C   0  0  0  0  0  0  0  0  0  0  0  0
  -44.8116   58.1402   66.7594 C   0  0  0  0  0  0  0  0  0  0  0  0
  -44.3959   57.5155   64.4361 C   0  0  0  0  0  0  0  0  0  0  0  0
  -43.0622   56.9758   64.8837 C   0  0  0  0  0  0  0  0  0  0  0  0
  -42.9738   55.5894   64.5510 O   0  0  0  0  0  0  0  0  0  0  0  0
  -43.6853   55.1039   64.9969 H   0  0  0  0  0  0  0  0  0  0  0  0
  6  7  1  0  0  0
  7  9  2  0  0  0
  7  8  1  0  0  0
  9  5  1  0  0  0
  5  4  1  0  0  0
  4  1  1  0  0  0
  1  3  2  0  0  0
  1  2  1  0  0  0
  3 10  1  0  0  0
 10 11  1  0  0  0
 11 12  1  0  0  0
 12 13  1  0  0  0
 12 14  2  0  0  0
 14 15  1  0  0  0
 15 16  1  0  0  0
 16 17  1  0  0  0
M  END
> <minimizedAffinity>
-8.05826

$$$$



 17 16  0  0  0  0  0  0  0  0999 V2000
  -31.6487   57.0336   61.2969 C   0  0  0  0  0  0  0  0  0  0  0  0
  -31.3695   58.4712   60.9414 C   0  0  0  0  0  0  0  0  0  0  0  0
  -32.8586   56.6679   61.6426 C   0  0  0  0  0  0  0  0  0  0  0  0
  -30.5374   56.0164   61.2530 C   0  0  0  0  0  0  0  0  0  0  0  0
  -29.3888   56.4758   62.1525 C   0  0  0  0  0  0  0  0  0  0  0  0
  -28.9572   55.2689   64.6606 C   0  0  0  0  0  0  0  0  0  0  0  0
  -28.1807   54.8022   63.4569 C   0  0  0  0  0  0  0  0  0  0  0  0
  -27.1738   53.6893   63.5948 C   0  0  0  0  0  0  0  0  0  0  0  0
  -28.3825   55.3636   62.2903 C   0  0  0  0  0  0  0  0  0  0  0  0
  -33.9413   57.7033   61.8055 C   0  0  0  0  0  0  0  0  0  0  0  0
  -35.1894   57.0470   62.3984 C   0  0  0  0  0  0  0  0  0  0  0  0
  -36.4190   57.6294   61.7507 C   0  0  0  0  0  0  0  0  0  0  0  0
  -37.7879   57.2161   62.2247 C   0  0  0  0  0  0  0  0  0  0  0  0
  -36.2974   58.4955   60.7748 C   0  0  0  0  0  0  0  0  0  0  0  0
  -37.5270   59.0779   60.1271 C   0  0  0  0  0  0  0  0  0  0  0  0
  -37.6615   60.4484   60.5072 O   0  0  0  0  0  0  0  0  0  0  0  0
  -37.7441   60.5098   61.4717 H   0  0  0  0  0  0  0  0  0  0  0  0
  6  7  1  0  0  0
  7  9  2  0  0  0
  7  8  1  0  0  0
  9  5  1  0  0  0
  5  4  1  0  0  0
  4  1  1  0  0  0
  1  3  2  0  0  0
  1  2  1  0  0  0
  3 10  1  0  0  0
 10 11  1  0  0  0
 11 12  1  0  0  0
 12 13  1  0  0  0
 12 14  2  0  0  0
 14 15  1  0  0  0
 15 16  1  0  0  0
 16 17  1  0  0  0
M  END
> <minimizedAffinity>
-8.03137

$$$$



 17 16  0  0  0  0  0  0  0  0999 V2000
  -49.8774   58.6633   61.2053 C   0  0  0  0  0  0  0  0  0  0  0  0
  -49.7298   60.1555   61.0539 C   0  0  0  0  0  0  0  0  0  0  0  0
  -49.8834   58.1240   62.3995 C   0  0  0  0  0  0  0  0  0  0  0  0
  -50.0200   57.7919   59.9838 C   0  0  0  0  0  0  0  0  0  0  0  0
  -48.7470   56.9654   59.7947 C   0  0  0  0  0  0  0  0  0  0  0  0
  -47.0919   55.7844   57.8455 C   0  0  0  0  0  0  0  0  0  0  0  0
  -46.9394   57.2460   58.1774 C   0  0  0  0  0  0  0  0  0  0  0  0
  -45.9018   58.0760   57.4660 C   0  0  0  0  0  0  0  0  0  0  0  0
  -47.7101   57.7948   59.0838 C   0  0  0  0  0  0  0  0  0  0  0  0
  -49.6187   58.9770   63.6131 C   0  0  0  0  0  0  0  0  0  0  0  0
  -48.1348   58.9003   63.9765 C   0  0  0  0  0  0  0  0  0  0  0  0
  -47.9830   58.2745   65.3389 C   0  0  0  0  0  0  0  0  0  0  0  0
  -49.2009   57.8132   66.0961 C   0  0  0  0  0  0  0  0  0  0  0  0
  -46.7913   58.1316   65.8651 C   0  0  0  0  0  0  0  0  0  0  0  0
  -46.6396   57.5058   67.2274 C   0  0  0  0  0  0  0  0  0  0  0  0
  -46.5830   58.5324   68.2192 O   0  0  0  0  0  0  0  0  0  0  0  0
  -45.8248   59.1110   68.0428 H   0  0  0  0  0  0  0  0  0  0  0  0
  6  7  1  0  0  0
  7  9  2  0  0  0
  7  8  1  0  0  0
  9  5  1  0  0  0
  5  4  1  0  0  0
  4  1  1  0  0  0
  1  3  2  0  0  0
  1  2  1  0  0  0
  3 10  1  0  0  0
 10 11  1  0  0  0
 11 12  1  0  0  0
 12 13  1  0  0  0
 12 14  2  0  0  0
 14 15  1  0  0  0
 15 16  1  0  0  0
 16 17  1  0  0  0
M  END
> <minimizedAffinity>
-8.02119

$$$$



 17 16  0  0  0  0  0  0  0  0999 V2000
  -49.7080   59.4762   64.6484 C   0  0  0  0  0  0  0  0  0  0  0  0
  -48.8942   60.4507   63.8364 C   0  0  0  0  0  0  0  0  0  0  0  0
  -50.7023   58.8298   64.0909 C   0  0  0  0  0  0  0  0  0  0  0  0
  -49.3773   59.2436   66.1003 C   0  0  0  0  0  0  0  0  0  0  0  0
  -48.7027   57.8799   66.2582 C   0  0  0  0  0  0  0  0  0  0  0  0
  -46.1436   58.4328   67.2965 C   0  0  0  0  0  0  0  0  0  0  0  0
  -46.3038   58.0675   65.8438 C   0  0  0  0  0  0  0  0  0  0  0  0
  -45.0949   57.9972   64.9466 C   0  0  0  0  0  0  0  0  0  0  0  0
  -47.4946   57.8098   65.3616 C   0  0  0  0  0  0  0  0  0  0  0  0
  -51.1112   59.1506   62.6765 C   0  0  0  0  0  0  0  0  0  0  0  0
  -51.1570   57.8615   61.8542 C   0  0  0  0  0  0  0  0  0  0  0  0
  -50.0353   57.8674   60.8481 C   0  0  0  0  0  0  0  0  0  0  0  0
  -49.4093   59.1707   60.4251 C   0  0  0  0  0  0  0  0  0  0  0  0
  -49.6043   56.7386   60.3409 C   0  0  0  0  0  0  0  0  0  0  0  0
  -48.4825   56.7445   59.3348 C   0  0  0  0  0  0  0  0  0  0  0  0
  -47.9820   55.4164   59.1721 O   0  0  0  0  0  0  0  0  0  0  0  0
  -47.6514   55.0890   60.0232 H   0  0  0  0  0  0  0  0  0  0  0  0
  6  7  1  0  0  0
  7  9  2  0  0  0
  7  8  1  0  0  0
  9  5  1  0  0  0
  5  4  1  0  0  0
  4  1  1  0  0  0
  1  3  2  0  0  0
  1  2  1  0  0  0
  3 10  1  0  0  0
 10 11  1  0  0  0
 11 12  1  0  0  0
 12 13  1  0  0  0
 12 14  2  0  0  0
 14 15  1  0  0  0
 15 16  1  0  0  0
 16 17  1  0  0  0
M  END
> <minimizedAffinity>
-7.58451

$$$$



 17 16  0  0  0  0  0  0  0  0999 V2000
  -50.4055   59.6332   64.5589 C   0  0  0  0  0  0  0  0  0  0  0  0
  -49.5897   60.8384   64.9505 C   0  0  0  0  0  0  0  0  0  0  0  0
  -50.2793   58.5125   65.2261 C   0  0  0  0  0  0  0  0  0  0  0  0
  -51.3676   59.7175   63.4019 C   0  0  0  0  0  0  0  0  0  0  0  0
  -51.1214   58.5484   62.4468 C   0  0  0  0  0  0  0  0  0  0  0  0
  -50.0581   56.5818   60.7335 C   0  0  0  0  0  0  0  0  0  0  0  0
  -49.5042   57.9826   60.7072 C   0  0  0  0  0  0  0  0  0  0  0  0
  -48.3819   58.3315   59.7637 C   0  0  0  0  0  0  0  0  0  0  0  0
  -49.9997   58.8971   61.5040 C   0  0  0  0  0  0  0  0  0  0  0  0
  -49.2317   58.3899   66.3024 C   0  0  0  0  0  0  0  0  0  0  0  0
  -48.3015   57.2198   65.9777 C   0  0  0  0  0  0  0  0  0  0  0  0
  -46.9263   57.7456   65.6565 C   0  0  0  0  0  0  0  0  0  0  0  0
  -46.7031   58.5590   64.4084 C   0  0  0  0  0  0  0  0  0  0  0  0
  -45.9244   57.4950   66.4632 C   0  0  0  0  0  0  0  0  0  0  0  0
  -44.5492   58.0207   66.1421 C   0  0  0  0  0  0  0  0  0  0  0  0
  -43.5655   57.1887   66.7591 O   0  0  0  0  0  0  0  0  0  0  0  0
  -43.6965   57.1914   67.7202 H   0  0  0  0  0  0  0  0  0  0  0  0
  6  7  1  0  0  0
  7  9  2  0  0  0
  7  8  1  0  0  0
  9  5  1  0  0  0
  5  4  1  0  0  0
  4  1  1  0  0  0
  1  3  2  0  0  0
  1  2  1  0  0  0
  3 10  1  0  0  0
 10 11  1  0  0  0
 11 12  1  0  0  0
 12 13  1  0  0  0
 12 14  2  0  0  0
 14 15  1  0  0  0
 15 16  1  0  0  0
 16 17  1  0  0  0
M  END
> <minimizedAffinity>
-7.57955

$$$$



 17 16  0  0  0  0  0  0  0  0999 V2000
  -50.5306   59.3097   62.3417 C   0  0  0  0  0  0  0  0  0  0  0  0
  -49.5887   60.2440   61.6267 C   0  0  0  0  0  0  0  0  0  0  0  0
  -50.8056   58.1368   61.8263 C   0  0  0  0  0  0  0  0  0  0  0  0
  -51.1543   59.7234   63.6499 C   0  0  0  0  0  0  0  0  0  0  0  0
  -50.7611   58.7261   64.7410 C   0  0  0  0  0  0  0  0  0  0  0  0
  -48.5462   57.2062   65.5879 C   0  0  0  0  0  0  0  0  0  0  0  0
  -48.6903   58.6387   66.0316 C   0  0  0  0  0  0  0  0  0  0  0  0
  -47.6490   59.2583   66.9278 C   0  0  0  0  0  0  0  0  0  0  0  0
  -49.7206   59.3454   65.6367 C   0  0  0  0  0  0  0  0  0  0  0  0
  -50.2809   57.7712   60.4618 C   0  0  0  0  0  0  0  0  0  0  0  0
  -49.0420   56.8867   60.6122 C   0  0  0  0  0  0  0  0  0  0  0  0
  -48.2672   56.8836   59.3197 C   0  0  0  0  0  0  0  0  0  0  0  0
  -47.8748   55.5777   58.6794 C   0  0  0  0  0  0  0  0  0  0  0  0
  -47.9345   58.0173   58.7527 C   0  0  0  0  0  0  0  0  0  0  0  0
  -47.1597   58.0143   57.4603 C   0  0  0  0  0  0  0  0  0  0  0  0
  -45.7703   58.1965   57.7378 O   0  0  0  0  0  0  0  0  0  0  0  0
  -45.6396   59.0439   58.1913 H   0  0  0  0  0  0  0  0  0  0  0  0
  6  7  1  0  0  0
  7  9  2  0  0  0
  7  8  1  0  0  0
  9  5  1  0  0  0
  5  4  1  0  0  0
  4  1  1  0  0  0
  1  3  2  0  0  0
  1  2  1  0  0  0
  3 10  1  0  0  0
 10 11  1  0  0  0
 11 12  1  0  0  0
 12 13  1  0  0  0
 12 14  2  0  0  0
 14 15  1  0  0  0
 15 16  1  0  0  0
 16 17  1  0  0  0
M  END
> <minimizedAffinity>
-7.47283

$$$$
