


 17 16  0  0  0  0  0  0  0  0999 V2000
  -50.4268   58.7924   61.6227 C   0  0  0  0  0  0  0  0  0  0  0  0
  -49.7534   60.1167   61.3696 C   0  0  0  0  0  0  0  0  0  0  0  0
  -50.9878   58.5546   62.7828 C   0  0  0  0  0  0  0  0  0  0  0  0
  -50.4567   57.7428   60.5416 C   0  0  0  0  0  0  0  0  0  0  0  0
  -49.0328   57.2617   60.2573 C   0  0  0  0  0  0  0  0  0  0  0  0
  -47.1360   55.9787   58.6175 C   0  0  0  0  0  0  0  0  0  0  0  0
  -47.6190   57.3625   58.2692 C   0  0  0  0  0  0  0  0  0  0  0  0
  -47.0878   58.0597   57.0432 C   0  0  0  0  0  0  0  0  0  0  0  0
  -48.5019   57.9585   59.0322 C   0  0  0  0  0  0  0  0  0  0  0  0
  -50.8530   59.5523   63.9040 C   0  0  0  0  0  0  0  0  0  0  0  0
  -50.4932   58.8199   65.1978 C   0  0  0  0  0  0  0  0  0  0  0  0
  -49.0078   58.9149   65.4324 C   0  0  0  0  0  0  0  0  0  0  0  0
  -48.2051   59.9935   64.7529 C   0  0  0  0  0  0  0  0  0  0  0  0
  -48.4141   58.0590   66.2276 C   0  0  0  0  0  0  0  0  0  0  0  0
  -46.9286   58.1541   66.4621 C   0  0  0  0  0  0  0  0  0  0  0  0
  -46.2903   56.9821   65.9526 O   0  0  0  0  0  0  0  0  0  0  0  0
  -46.6401   56.1998   66.4072 H   0  0  0  0  0  0  0  0  0  0  0  0
  6  7  1  0  0  0
  7  9  2  0  0  0
  7  8  1  0  0  0
  9  5  1  0  0  0
  5  4  1  0  0  0
  4  1  1  0  0  0
  1  3  2  0  0  0
  1  2  1  0  0  0
  3 10  1  0  0  0
 10 11  1  0  0  0
 11 12  1  0  0  0
 12 13  1  0  0  0
 12 14  2  0  0  0
 14 15  1  0  0  0
 15 16  1  0  0  0
 16 17  1  0  0  0
M  END
> <minimizedAffinity>
-8.52449

$$$$



 17 16  0  0  0  0  0  0  0  0999 V2000
  -50.7241   59.0950   62.1897 C   0  0  0  0  0  0  0  0  0  0  0  0
  -49.7126   60.0673   61.6393 C   0  0  0  0  0  0  0  0  0  0  0  0
  -50.9673   57.9745   61.5554 C   0  0  0  0  0  0  0  0  0  0  0  0
  -51.4540   59.4103   63.4701 C   0  0  0  0  0  0  0  0  0  0  0  0
  -50.4461   59.8232   64.5440 C   0  0  0  0  0  0  0  0  0  0  0  0
  -47.6623   59.4132   64.6683 C   0  0  0  0  0  0  0  0  0  0  0  0
  -48.6001   58.4013   65.2735 C   0  0  0  0  0  0  0  0  0  0  0  0
  -48.0486   57.1704   65.9459 C   0  0  0  0  0  0  0  0  0  0  0  0
  -49.8950   58.5930   65.2159 C   0  0  0  0  0  0  0  0  0  0  0  0
  -50.3306   57.7137   60.2148 C   0  0  0  0  0  0  0  0  0  0  0  0
  -49.1859   56.7125   60.3801 C   0  0  0  0  0  0  0  0  0  0  0  0
  -48.1880   56.9023   59.2670 C   0  0  0  0  0  0  0  0  0  0  0  0
  -47.1350   55.8556   59.0126 C   0  0  0  0  0  0  0  0  0  0  0  0
  -48.2362   57.9782   58.5204 C   0  0  0  0  0  0  0  0  0  0  0  0
  -47.2383   58.1680   57.4074 C   0  0  0  0  0  0  0  0  0  0  0  0
  -47.8108   57.7283   56.1747 O   0  0  0  0  0  0  0  0  0  0  0  0
  -48.0441   56.7893   56.2433 H   0  0  0  0  0  0  0  0  0  0  0  0
  6  7  1  0  0  0
  7  9  2  0  0  0
  7  8  1  0  0  0
  9  5  1  0  0  0
  5  4  1  0  0  0
  4  1  1  0  0  0
  1  3  2  0  0  0
  1  2  1  0  0  0
  3 10  1  0  0  0
 10 11  1  0  0  0
 11 12  1  0  0  0
 12 13  1  0  0  0
 12 14  2  0  0  0
 14 15  1  0  0  0
 15 16  1  0  0  0
 16 17  1  0  0  0
M  END
> <minimizedAffinity>
-8.37734

$$$$



 17 16  0  0  0  0  0  0  0  0999 V2000
  -50.7319   59.1000   63.7966 C   0  0  0  0  0  0  0  0  0  0  0  0
  -51.9498   59.8827   63.3777 C   0  0  0  0  0  0  0  0  0  0  0  0
  -50.0550   58.4166   62.9067 C   0  0  0  0  0  0  0  0  0  0  0  0
  -50.2914   59.1050   65.2380 C   0  0  0  0  0  0  0  0  0  0  0  0
  -49.0887   60.0358   65.4011 C   0  0  0  0  0  0  0  0  0  0  0  0
  -46.6108   58.7912   64.9072 C   0  0  0  0  0  0  0  0  0  0  0  0
  -47.0874   58.9839   66.3232 C   0  0  0  0  0  0  0  0  0  0  0  0
  -46.2381   58.5114   67.4751 C   0  0  0  0  0  0  0  0  0  0  0  0
  -48.2400   59.5635   66.5523 C   0  0  0  0  0  0  0  0  0  0  0  0
  -50.5625   58.3111   61.4918 C   0  0  0  0  0  0  0  0  0  0  0  0
  -49.4943   58.8290   60.5271 C   0  0  0  0  0  0  0  0  0  0  0  0
  -48.9333   57.6774   59.7336 C   0  0  0  0  0  0  0  0  0  0  0  0
  -49.1871   56.2609   60.1790 C   0  0  0  0  0  0  0  0  0  0  0  0
  -48.2242   57.9082   58.6560 C   0  0  0  0  0  0  0  0  0  0  0  0
  -47.6631   56.7566   57.8625 C   0  0  0  0  0  0  0  0  0  0  0  0
  -48.4309   56.5808   56.6707 O   0  0  0  0  0  0  0  0  0  0  0  0
  -49.3533   56.3932   56.9051 H   0  0  0  0  0  0  0  0  0  0  0  0
  6  7  1  0  0  0
  7  9  2  0  0  0
  7  8  1  0  0  0
  9  5  1  0  0  0
  5  4  1  0  0  0
  4  1  1  0  0  0
  1  3  2  0  0  0
  1  2  1  0  0  0
  3 10  1  0  0  0
 10 11  1  0  0  0
 11 12  1  0  0  0
 12 13  1  0  0  0
 12 14  2  0  0  0
 14 15  1  0  0  0
 15 16  1  0  0  0
 16 17  1  0  0  0
M  END
> <minimizedAffinity>
-8.12657

$$$$



 17 16  0  0  0  0  0  0  0  0999 V2000
  -50.3013   58.6737   62.4424 C   0  0  0  0  0  0  0  0  0  0  0  0
  -51.3579   59.4906   63.1407 C   0  0  0  0  0  0  0  0  0  0  0  0
  -49.2365   58.2827   63.0985 C   0  0  0  0  0  0  0  0  0  0  0  0
  -50.4701   58.3050   60.9909 C   0  0  0  0  0  0  0  0  0  0  0  0
  -49.2574   57.4978   60.5246 C   0  0  0  0  0  0  0  0  0  0  0  0
  -47.4254   56.0606   58.9400 C   0  0  0  0  0  0  0  0  0  0  0  0
  -47.8334   57.4550   58.5417 C   0  0  0  0  0  0  0  0  0  0  0  0
  -47.2619   58.0803   57.2952 C   0  0  0  0  0  0  0  0  0  0  0  0
  -48.6862   58.1228   59.2790 C   0  0  0  0  0  0  0  0  0  0  0  0
  -49.0072   58.7522   64.5118 C   0  0  0  0  0  0  0  0  0  0  0  0
  -47.6721   59.4944   64.5923 C   0  0  0  0  0  0  0  0  0  0  0  0
  -46.7103   58.7071   65.4441 C   0  0  0  0  0  0  0  0  0  0  0  0
  -47.1965   58.0261   66.6968 C   0  0  0  0  0  0  0  0  0  0  0  0
  -45.4505   58.6148   65.0952 C   0  0  0  0  0  0  0  0  0  0  0  0
  -44.4886   57.8274   65.9470 C   0  0  0  0  0  0  0  0  0  0  0  0
  -44.0483   56.6750   65.2267 O   0  0  0  0  0  0  0  0  0  0  0  0
  -44.8128   56.1206   65.0052 H   0  0  0  0  0  0  0  0  0  0  0  0
  6  7  1  0  0  0
  7  9  2  0  0  0
  7  8  1  0  0  0
  9  5  1  0  0  0
  5  4  1  0  0  0
  4  1  1  0  0  0
  1  3  2  0  0  0
  1  2  1  0  0  0
  3 10  1  0  0  0
 10 11  1  0  0  0
 11 12  1  0  0  0
 12 13  1  0  0  0
 12 14  2  0  0  0
 14 15  1  0  0  0
 15 16  1  0  0  0
 16 17  1  0  0  0
M  END
> <minimizedAffinity>
-8.12474

$$$$



 17 16  0  0  0  0  0  0  0  0999 V2000
  -49.0916   59.7223   64.6605 C   0  0  0  0  0  0  0  0  0  0  0  0
  -48.6261   61.0985   64.2597 C   0  0  0  0  0  0  0  0  0  0  0  0
  -48.2142   58.7823   64.9128 C   0  0  0  0  0  0  0  0  0  0  0  0
  -50.5654   59.4278   64.7731 C   0  0  0  0  0  0  0  0  0  0  0  0
  -51.2373   59.6591   63.4186 C   0  0  0  0  0  0  0  0  0  0  0  0
  -49.7052   59.6628   61.0551 C   0  0  0  0  0  0  0  0  0  0  0  0
  -50.4217   58.4095   61.4860 C   0  0  0  0  0  0  0  0  0  0  0  0
  -50.3179   57.1579   60.6528 C   0  0  0  0  0  0  0  0  0  0  0  0
  -51.1337   58.4084   62.5859 C   0  0  0  0  0  0  0  0  0  0  0  0
  -46.7473   59.0389   64.6827 C   0  0  0  0  0  0  0  0  0  0  0  0
  -45.9440   58.5054   65.8701 C   0  0  0  0  0  0  0  0  0  0  0  0
  -44.5758   58.0822   65.4014 C   0  0  0  0  0  0  0  0  0  0  0  0
  -43.5597   57.5832   66.3953 C   0  0  0  0  0  0  0  0  0  0  0  0
  -44.2698   58.1483   64.1289 C   0  0  0  0  0  0  0  0  0  0  0  0
  -42.9017   57.7250   63.6601 C   0  0  0  0  0  0  0  0  0  0  0  0
  -42.6372   58.3025   62.3806 O   0  0  0  0  0  0  0  0  0  0  0  0
  -43.3047   58.0000   61.7451 H   0  0  0  0  0  0  0  0  0  0  0  0
  6  7  1  0  0  0
  7  9  2  0  0  0
  7  8  1  0  0  0
  9  5  1  0  0  0
  5  4  1  0  0  0
  4  1  1  0  0  0
  1  3  2  0  0  0
  1  2  1  0  0  0
  3 10  1  0  0  0
 10 11  1  0  0  0
 11 12  1  0  0  0
 12 13  1  0  0  0
 12 14  2  0  0  0
 14 15  1  0  0  0
 15 16  1  0  0  0
 16 17  1  0  0  0
M  END
> <minimizedAffinity>
-7.70969

$$$$



 17 16  0  0  0  0  0  0  0  0999 V2000
  -40.4654   59.7602   60.8586 C   0  0  0  0  0  0  0  0  0  0  0  0
  -41.3372   58.7617   60.1415 C   0  0  0  0  0  0  0  0  0  0  0  0
  -40.9257   60.3966   61.9076 C   0  0  0  0  0  0  0  0  0  0  0  0
  -39.0642   60.0253   60.3710 C   0  0  0  0  0  0  0  0  0  0  0  0
  -38.3693   58.6969   60.0675 C   0  0  0  0  0  0  0  0  0  0  0  0
  -38.7180   56.9596   62.2569 C   0  0  0  0  0  0  0  0  0  0  0  0
  -37.4063   57.6753   62.0651 C   0  0  0  0  0  0  0  0  0  0  0  0
  -36.2808   57.4610   63.0443 C   0  0  0  0  0  0  0  0  0  0  0  0
  -37.2445   58.4828   61.0461 C   0  0  0  0  0  0  0  0  0  0  0  0
  -42.3641   60.2244   62.3225 C   0  0  0  0  0  0  0  0  0  0  0  0
  -42.4303   59.9280   63.8218 C   0  0  0  0  0  0  0  0  0  0  0  0
  -41.9231   58.5329   64.0808 C   0  0  0  0  0  0  0  0  0  0  0  0
  -40.7395   58.3176   64.9875 C   0  0  0  0  0  0  0  0  0  0  0  0
  -42.5118   57.5067   63.5172 C   0  0  0  0  0  0  0  0  0  0  0  0
  -42.0047   56.1116   63.7763 C   0  0  0  0  0  0  0  0  0  0  0  0
  -42.8121   55.4899   64.7774 O   0  0  0  0  0  0  0  0  0  0  0  0
  -42.7673   56.0076   65.5964 H   0  0  0  0  0  0  0  0  0  0  0  0
  6  7  1  0  0  0
  7  9  2  0  0  0
  7  8  1  0  0  0
  9  5  1  0  0  0
  5  4  1  0  0  0
  4  1  1  0  0  0
  1  3  2  0  0  0
  1  2  1  0  0  0
  3 10  1  0  0  0
 10 11  1  0  0  0
 11 12  1  0  0  0
 12 13  1  0  0  0
 12 14  2  0  0  0
 14 15  1  0  0  0
 15 16  1  0  0  0
 16 17  1  0  0  0
M  END
> <minimizedAffinity>
-7.35963

$$$$



 17 16  0  0  0  0  0  0  0  0999 V2000
  -47.0342   58.8435   66.5166 C   0  0  0  0  0  0  0  0  0  0  0  0
  -46.0996   58.8733   67.6985 C   0  0  0  0  0  0  0  0  0  0  0  0
  -46.6355   58.3277   65.3799 C   0  0  0  0  0  0  0  0  0  0  0  0
  -48.4273   59.4047   66.6424 C   0  0  0  0  0  0  0  0  0  0  0  0
  -49.4107   58.5026   65.8950 C   0  0  0  0  0  0  0  0  0  0  0  0
  -49.9951   58.5189   63.1398 C   0  0  0  0  0  0  0  0  0  0  0  0
  -50.8272   59.3392   64.0908 C   0  0  0  0  0  0  0  0  0  0  0  0
  -51.9724   60.1677   63.5679 C   0  0  0  0  0  0  0  0  0  0  0  0
  -50.5551   59.3307   65.3725 C   0  0  0  0  0  0  0  0  0  0  0  0
  -45.2065   57.8785   65.2159 C   0  0  0  0  0  0  0  0  0  0  0  0
  -44.6185   58.5011   63.9484 C   0  0  0  0  0  0  0  0  0  0  0  0
  -43.2564   57.9129   63.6852 C   0  0  0  0  0  0  0  0  0  0  0  0
  -42.3682   58.5130   62.6268 C   0  0  0  0  0  0  0  0  0  0  0  0
  -42.8445   56.8790   64.3771 C   0  0  0  0  0  0  0  0  0  0  0  0
  -41.4823   56.2908   64.1139 C   0  0  0  0  0  0  0  0  0  0  0  0
  -41.6149   55.1359   63.2837 O   0  0  0  0  0  0  0  0  0  0  0  0
  -42.1703   54.4783   63.7309 H   0  0  0  0  0  0  0  0  0  0  0  0
  6  7  1  0  0  0
  7  9  2  0  0  0
  7  8  1  0  0  0
  9  5  1  0  0  0
  5  4  1  0  0  0
  4  1  1  0  0  0
  1  3  2  0  0  0
  1  2  1  0  0  0
  3 10  1  0  0  0
 10 11  1  0  0  0
 11 12  1  0  0  0
 12 13  1  0  0  0
 12 14  2  0  0  0
 14 15  1  0  0  0
 15 16  1  0  0  0
 16 17  1  0  0  0
M  END
> <minimizedAffinity>
-7.30390

$$$$



 17 16  0  0  0  0  0  0  0  0999 V2000
  -38.8233   58.9290   60.9795 C   0  0  0  0  0  0  0  0  0  0  0  0
  -39.2392   59.9862   61.9697 C   0  0  0  0  0  0  0  0  0  0  0  0
  -39.7056   58.4224   60.1536 C   0  0  0  0  0  0  0  0  0  0  0  0
  -37.3929   58.4560   60.9376 C   0  0  0  0  0  0  0  0  0  0  0  0
  -37.1688   57.4095   62.0304 C   0  0  0  0  0  0  0  0  0  0  0  0
  -37.1722   58.0811   64.7658 C   0  0  0  0  0  0  0  0  0  0  0  0
  -35.8708   58.0053   64.0108 C   0  0  0  0  0  0  0  0  0  0  0  0
  -34.5709   58.2880   64.7193 C   0  0  0  0  0  0  0  0  0  0  0  0
  -35.8699   57.6922   62.7385 C   0  0  0  0  0  0  0  0  0  0  0  0
  -41.1583   58.8038   60.2756 C   0  0  0  0  0  0  0  0  0  0  0  0
  -41.9741   57.5783   60.6911 C   0  0  0  0  0  0  0  0  0  0  0  0
  -42.0541   57.5143   62.1944 C   0  0  0  0  0  0  0  0  0  0  0  0
  -42.6731   58.6510   62.9652 C   0  0  0  0  0  0  0  0  0  0  0  0
  -41.5850   56.4696   62.8315 C   0  0  0  0  0  0  0  0  0  0  0  0
  -41.6650   56.4055   64.3349 C   0  0  0  0  0  0  0  0  0  0  0  0
  -42.7111   55.5114   64.7182 O   0  0  0  0  0  0  0  0  0  0  0  0
  -43.5554   55.8302   64.3627 H   0  0  0  0  0  0  0  0  0  0  0  0
  6  7  1  0  0  0
  7  9  2  0  0  0
  7  8  1  0  0  0
  9  5  1  0  0  0
  5  4  1  0  0  0
  4  1  1  0  0  0
  1  3  2  0  0  0
  1  2  1  0  0  0
  3 10  1  0  0  0
 10 11  1  0  0  0
 11 12  1  0  0  0
 12 13  1  0  0  0
 12 14  2  0  0  0
 14 15  1  0  0  0
 15 16  1  0  0  0
 16 17  1  0  0  0
M  END
> <minimizedAffinity>
-7.28581

$$$$



 17 16  0  0  0  0  0  0  0  0999 V2000
  -48.1320   58.6105   65.5616 C   0  0  0  0  0  0  0  0  0  0  0  0
  -48.5028   59.6587   66.5790 C   0  0  0  0  0  0  0  0  0  0  0  0
  -48.7378   58.5826   64.4000 C   0  0  0  0  0  0  0  0  0  0  0  0
  -47.0636   57.5960   65.8792 C   0  0  0  0  0  0  0  0  0  0  0  0
  -45.7193   58.3060   66.0482 C   0  0  0  0  0  0  0  0  0  0  0  0
  -43.1784   57.1767   65.5996 C   0  0  0  0  0  0  0  0  0  0  0  0
  -43.8738   57.9288   64.4948 C   0  0  0  0  0  0  0  0  0  0  0  0
  -43.2101   58.0760   63.1497 C   0  0  0  0  0  0  0  0  0  0  0  0
  -45.0561   58.4533   64.7040 C   0  0  0  0  0  0  0  0  0  0  0  0
  -49.8885   59.5165   64.1274 C   0  0  0  0  0  0  0  0  0  0  0  0
  -50.9040   58.8225   63.2180 C   0  0  0  0  0  0  0  0  0  0  0  0
  -50.3542   58.7468   61.8170 C   0  0  0  0  0  0  0  0  0  0  0  0
  -49.7585   59.9720   61.1741 C   0  0  0  0  0  0  0  0  0  0  0  0
  -50.3945   57.6150   61.1578 C   0  0  0  0  0  0  0  0  0  0  0  0
  -49.8447   57.5393   59.7568 C   0  0  0  0  0  0  0  0  0  0  0  0
  -48.9196   56.4545   59.6665 O   0  0  0  0  0  0  0  0  0  0  0  0
  -48.1922   56.5970   60.2921 H   0  0  0  0  0  0  0  0  0  0  0  0
  6  7  1  0  0  0
  7  9  2  0  0  0
  7  8  1  0  0  0
  9  5  1  0  0  0
  5  4  1  0  0  0
  4  1  1  0  0  0
  1  3  2  0  0  0
  1  2  1  0  0  0
  3 10  1  0  0  0
 10 11  1  0  0  0
 11 12  1  0  0  0
 12 13  1  0  0  0
 12 14  2  0  0  0
 14 15  1  0  0  0
 15 16  1  0  0  0
 16 17  1  0  0  0
M  END
> <minimizedAffinity>
-7.28581

$$$$
