


 17 16  0  0  0  0  0  0  0  0999 V2000
  -50.4474   59.4390   61.7315 C   0  0  0  0  0  0  0  0  0  0  0  0
  -49.5155   60.5497   61.3201 C   0  0  0  0  0  0  0  0  0  0  0  0
  -50.4087   58.2873   61.1075 C   0  0  0  0  0  0  0  0  0  0  0  0
  -51.4219   59.6519   62.8613 C   0  0  0  0  0  0  0  0  0  0  0  0
  -50.6545   59.9868   64.1414 C   0  0  0  0  0  0  0  0  0  0  0  0
  -47.9061   60.2039   64.7181 C   0  0  0  0  0  0  0  0  0  0  0  0
  -48.6034   58.8764   64.8636 C   0  0  0  0  0  0  0  0  0  0  0  0
  -47.8304   57.6651   65.3184 C   0  0  0  0  0  0  0  0  0  0  0  0
  -49.8820   58.7763   64.5957 C   0  0  0  0  0  0  0  0  0  0  0  0
  -49.5230   58.1132   59.9010 C   0  0  0  0  0  0  0  0  0  0  0  0
  -49.2079   56.6285   59.7098 C   0  0  0  0  0  0  0  0  0  0  0  0
  -48.1199   56.4747   58.6787 C   0  0  0  0  0  0  0  0  0  0  0  0
  -46.7002   56.2203   59.1136 C   0  0  0  0  0  0  0  0  0  0  0  0
  -48.4087   56.5624   57.4035 C   0  0  0  0  0  0  0  0  0  0  0  0
  -47.3207   56.4086   56.3724 C   0  0  0  0  0  0  0  0  0  0  0  0
  -47.1376   55.0231   56.0767 O   0  0  0  0  0  0  0  0  0  0  0  0
  -46.8859   54.5504   56.8855 H   0  0  0  0  0  0  0  0  0  0  0  0
  6  7  1  0  0  0
  7  9  2  0  0  0
  7  8  1  0  0  0
  9  5  1  0  0  0
  5  4  1  0  0  0
  4  1  1  0  0  0
  1  3  2  0  0  0
  1  2  1  0  0  0
  3 10  1  0  0  0
 10 11  1  0  0  0
 11 12  1  0  0  0
 12 13  1  0  0  0
 12 14  2  0  0  0
 14 15  1  0  0  0
 15 16  1  0  0  0
 16 17  1  0  0  0
M  END
> <minimizedAffinity>
-8.16133

$$$$



 17 16  0  0  0  0  0  0  0  0999 V2000
  -50.4301   58.9558   61.5889 C   0  0  0  0  0  0  0  0  0  0  0  0
  -49.5978   60.1234   61.1251 C   0  0  0  0  0  0  0  0  0  0  0  0
  -51.0376   59.0048   62.7489 C   0  0  0  0  0  0  0  0  0  0  0  0
  -50.5654   57.7331   60.7181 C   0  0  0  0  0  0  0  0  0  0  0  0
  -49.1797   57.2792   60.2562 C   0  0  0  0  0  0  0  0  0  0  0  0
  -47.1967   55.7297   58.9914 C   0  0  0  0  0  0  0  0  0  0  0  0
  -48.2445   56.4306   58.1665 C   0  0  0  0  0  0  0  0  0  0  0  0
  -48.2319   56.3019   56.6649 C   0  0  0  0  0  0  0  0  0  0  0  0
  -49.1671   57.1507   58.7556 C   0  0  0  0  0  0  0  0  0  0  0  0
  -50.8051   60.1724   63.6727 C   0  0  0  0  0  0  0  0  0  0  0  0
  -50.5898   59.6599   65.0979 C   0  0  0  0  0  0  0  0  0  0  0  0
  -49.1668   59.1889   65.2526 C   0  0  0  0  0  0  0  0  0  0  0  0
  -48.8029   57.7667   64.9144 C   0  0  0  0  0  0  0  0  0  0  0  0
  -48.2457   60.0166   65.6815 C   0  0  0  0  0  0  0  0  0  0  0  0
  -46.8228   59.5455   65.8362 C   0  0  0  0  0  0  0  0  0  0  0  0
  -46.6137   59.0941   67.1753 O   0  0  0  0  0  0  0  0  0  0  0  0
  -46.7819   59.8234   67.7923 H   0  0  0  0  0  0  0  0  0  0  0  0
  6  7  1  0  0  0
  7  9  2  0  0  0
  7  8  1  0  0  0
  9  5  1  0  0  0
  5  4  1  0  0  0
  4  1  1  0  0  0
  1  3  2  0  0  0
  1  2  1  0  0  0
  3 10  1  0  0  0
 10 11  1  0  0  0
 11 12  1  0  0  0
 12 13  1  0  0  0
 12 14  2  0  0  0
 14 15  1  0  0  0
 15 16  1  0  0  0
 16 17  1  0  0  0
M  END
> <minimizedAffinity>
-8.07832

$$$$



 17 16  0  0  0  0  0  0  0  0999 V2000
  -50.2940   58.7732   63.2631 C   0  0  0  0  0  0  0  0  0  0  0  0
  -51.3390   59.8116   62.9452 C   0  0  0  0  0  0  0  0  0  0  0  0
  -49.5460   58.2829   62.3054 C   0  0  0  0  0  0  0  0  0  0  0  0
  -50.1080   58.3004   64.6820 C   0  0  0  0  0  0  0  0  0  0  0  0
  -49.5629   59.4470   65.5351 C   0  0  0  0  0  0  0  0  0  0  0  0
  -47.8474   61.3667   64.3928 C   0  0  0  0  0  0  0  0  0  0  0  0
  -47.2717   60.1952   65.1449 C   0  0  0  0  0  0  0  0  0  0  0  0
  -45.7782   60.0511   65.2867 C   0  0  0  0  0  0  0  0  0  0  0  0
  -48.0704   59.3029   65.6766 C   0  0  0  0  0  0  0  0  0  0  0  0
  -49.8122   58.6628   60.8717 C   0  0  0  0  0  0  0  0  0  0  0  0
  -50.4776   57.4904   60.1487 C   0  0  0  0  0  0  0  0  0  0  0  0
  -49.4370   56.7194   59.3784 C   0  0  0  0  0  0  0  0  0  0  0  0
  -48.7775   55.5160   59.9998 C   0  0  0  0  0  0  0  0  0  0  0  0
  -49.1056   57.0960   58.1677 C   0  0  0  0  0  0  0  0  0  0  0  0
  -48.0650   56.3250   57.3974 C   0  0  0  0  0  0  0  0  0  0  0  0
  -48.4665   56.2183   56.0307 O   0  0  0  0  0  0  0  0  0  0  0  0
  -49.3169   55.7546   55.9787 H   0  0  0  0  0  0  0  0  0  0  0  0
  6  7  1  0  0  0
  7  9  2  0  0  0
  7  8  1  0  0  0
  9  5  1  0  0  0
  5  4  1  0  0  0
  4  1  1  0  0  0
  1  3  2  0  0  0
  1  2  1  0  0  0
  3 10  1  0  0  0
 10 11  1  0  0  0
 11 12  1  0  0  0
 12 13  1  0  0  0
 12 14  2  0  0  0
 14 15  1  0  0  0
 15 16  1  0  0  0
 16 17  1  0  0  0
M  END
> <minimizedAffinity>
-7.96327

$$$$



 17 16  0  0  0  0  0  0  0  0999 V2000
  -48.1113   59.0189   65.5944 C   0  0  0  0  0  0  0  0  0  0  0  0
  -48.3123   57.6234   65.0618 C   0  0  0  0  0  0  0  0  0  0  0  0
  -49.1277   59.8421   65.6730 C   0  0  0  0  0  0  0  0  0  0  0  0
  -46.7424   59.4667   66.0383 C   0  0  0  0  0  0  0  0  0  0  0  0
  -45.7341   59.2157   64.9158 C   0  0  0  0  0  0  0  0  0  0  0  0
  -44.1631   56.8859   65.1092 C   0  0  0  0  0  0  0  0  0  0  0  0
  -43.6044   58.2102   65.5604 C   0  0  0  0  0  0  0  0  0  0  0  0
  -42.2050   58.2883   66.1144 C   0  0  0  0  0  0  0  0  0  0  0  0
  -44.3356   59.2937   65.4696 C   0  0  0  0  0  0  0  0  0  0  0  0
  -50.4690   59.4389   65.1172 C   0  0  0  0  0  0  0  0  0  0  0  0
  -50.8423   60.3687   63.9612 C   0  0  0  0  0  0  0  0  0  0  0  0
  -50.4404   59.7329   62.6555 C   0  0  0  0  0  0  0  0  0  0  0  0
  -49.4732   60.4376   61.7405 C   0  0  0  0  0  0  0  0  0  0  0  0
  -50.9326   58.5668   62.3158 C   0  0  0  0  0  0  0  0  0  0  0  0
  -50.5307   57.9311   61.0100 C   0  0  0  0  0  0  0  0  0  0  0  0
  -51.4656   56.9051   60.6725 O   0  0  0  0  0  0  0  0  0  0  0  0
  -51.4733   56.2321   61.3710 H   0  0  0  0  0  0  0  0  0  0  0  0
  6  7  1  0  0  0
  7  9  2  0  0  0
  7  8  1  0  0  0
  9  5  1  0  0  0
  5  4  1  0  0  0
  4  1  1  0  0  0
  1  3  2  0  0  0
  1  2  1  0  0  0
  3 10  1  0  0  0
 10 11  1  0  0  0
 11 12  1  0  0  0
 12 13  1  0  0  0
 12 14  2  0  0  0
 14 15  1  0  0  0
 15 16  1  0  0  0
 16 17  1  0  0  0
M  END
> <minimizedAffinity>
-7.80252

$$$$



 17 16  0  0  0  0  0  0  0  0999 V2000
  -49.6157   60.4034   63.5063 C   0  0  0  0  0  0  0  0  0  0  0  0
  -50.9163   60.2751   64.2568 C   0  0  0  0  0  0  0  0  0  0  0  0
  -49.4846   59.8517   62.3250 C   0  0  0  0  0  0  0  0  0  0  0  0
  -48.4672   61.1676   64.1132 C   0  0  0  0  0  0  0  0  0  0  0  0
  -48.0043   60.4649   65.3905 C   0  0  0  0  0  0  0  0  0  0  0  0
  -47.8657   57.6685   65.0836 C   0  0  0  0  0  0  0  0  0  0  0  0
  -46.6107   58.4979   65.0025 C   0  0  0  0  0  0  0  0  0  0  0  0
  -45.2815   57.8314   64.7565 C   0  0  0  0  0  0  0  0  0  0  0  0
  -46.6760   59.7988   65.1447 C   0  0  0  0  0  0  0  0  0  0  0  0
  -50.5864   58.9859   61.7709 C   0  0  0  0  0  0  0  0  0  0  0  0
  -50.1286   57.5264   61.7544 C   0  0  0  0  0  0  0  0  0  0  0  0
  -49.5925   57.1836   60.3885 C   0  0  0  0  0  0  0  0  0  0  0  0
  -50.2927   57.6911   59.1550 C   0  0  0  0  0  0  0  0  0  0  0  0
  -48.5170   56.4436   60.2737 C   0  0  0  0  0  0  0  0  0  0  0  0
  -47.9810   56.1007   58.9078 C   0  0  0  0  0  0  0  0  0  0  0  0
  -47.1363   54.9526   59.0023 O   0  0  0  0  0  0  0  0  0  0  0  0
  -46.3975   55.1432   59.6013 H   0  0  0  0  0  0  0  0  0  0  0  0
  6  7  1  0  0  0
  7  9  2  0  0  0
  7  8  1  0  0  0
  9  5  1  0  0  0
  5  4  1  0  0  0
  4  1  1  0  0  0
  1  3  2  0  0  0
  1  2  1  0  0  0
  3 10  1  0  0  0
 10 11  1  0  0  0
 11 12  1  0  0  0
 12 13  1  0  0  0
 12 14  2  0  0  0
 14 15  1  0  0  0
 15 16  1  0  0  0
 16 17  1  0  0  0
M  END
> <minimizedAffinity>
-7.67340

$$$$



 17 16  0  0  0  0  0  0  0  0999 V2000
  -47.0722   58.6239   65.4059 C   0  0  0  0  0  0  0  0  0  0  0  0
  -47.5711   59.8178   66.1784 C   0  0  0  0  0  0  0  0  0  0  0  0
  -45.8038   58.5323   65.0897 C   0  0  0  0  0  0  0  0  0  0  0  0
  -48.0311   57.5346   64.9990 C   0  0  0  0  0  0  0  0  0  0  0  0
  -49.3247   58.1619   64.4768 C   0  0  0  0  0  0  0  0  0  0  0  0
  -51.1176   60.0758   63.4493 C   0  0  0  0  0  0  0  0  0  0  0  0
  -49.9080   59.6707   62.6478 C   0  0  0  0  0  0  0  0  0  0  0  0
  -49.6572   60.2899   61.2968 C   0  0  0  0  0  0  0  0  0  0  0  0
  -49.0741   58.7807   63.1267 C   0  0  0  0  0  0  0  0  0  0  0  0
  -44.8683   59.6754   65.3878 C   0  0  0  0  0  0  0  0  0  0  0  0
  -43.5285   59.4328   64.6907 C   0  0  0  0  0  0  0  0  0  0  0  0
  -42.4154   60.0084   65.5275 C   0  0  0  0  0  0  0  0  0  0  0  0
  -42.5736   60.1147   67.0218 C   0  0  0  0  0  0  0  0  0  0  0  0
  -41.3095   60.4168   64.9551 C   0  0  0  0  0  0  0  0  0  0  0  0
  -40.1964   60.9925   65.7919 C   0  0  0  0  0  0  0  0  0  0  0  0
  -40.3180   62.4152   65.8321 O   0  0  0  0  0  0  0  0  0  0  0  0
  -40.2620   62.7701   64.9311 H   0  0  0  0  0  0  0  0  0  0  0  0
  6  7  1  0  0  0
  7  9  2  0  0  0
  7  8  1  0  0  0
  9  5  1  0  0  0
  5  4  1  0  0  0
  4  1  1  0  0  0
  1  3  2  0  0  0
  1  2  1  0  0  0
  3 10  1  0  0  0
 10 11  1  0  0  0
 11 12  1  0  0  0
 12 13  1  0  0  0
 12 14  2  0  0  0
 14 15  1  0  0  0
 15 16  1  0  0  0
 16 17  1  0  0  0
M  END
> <minimizedAffinity>
-7.49591

$$$$



 17 16  0  0  0  0  0  0  0  0999 V2000
  -49.7422   59.7296   63.6379 C   0  0  0  0  0  0  0  0  0  0  0  0
  -50.2418   58.8595   64.7624 C   0  0  0  0  0  0  0  0  0  0  0  0
  -48.6949   60.4961   63.8190 C   0  0  0  0  0  0  0  0  0  0  0  0
  -50.4455   59.7167   62.3049 C   0  0  0  0  0  0  0  0  0  0  0  0
  -50.7775   58.2749   61.9167 C   0  0  0  0  0  0  0  0  0  0  0  0
  -50.3918   57.6668   59.1937 C   0  0  0  0  0  0  0  0  0  0  0  0
  -49.3419   57.2883   60.2057 C   0  0  0  0  0  0  0  0  0  0  0  0
  -48.0852   56.5852   59.7608 C   0  0  0  0  0  0  0  0  0  0  0  0
  -49.5217   57.5721   61.4721 C   0  0  0  0  0  0  0  0  0  0  0  0
  -48.0658   60.6026   65.1841 C   0  0  0  0  0  0  0  0  0  0  0  0
  -46.5428   60.6277   65.0431 C   0  0  0  0  0  0  0  0  0  0  0  0
  -45.9729   59.3152   65.5155 C   0  0  0  0  0  0  0  0  0  0  0  0
  -44.5237   58.9892   65.2650 C   0  0  0  0  0  0  0  0  0  0  0  0
  -46.7382   58.4572   66.1444 C   0  0  0  0  0  0  0  0  0  0  0  0
  -46.1683   57.1448   66.6169 C   0  0  0  0  0  0  0  0  0  0  0  0
  -46.7599   56.0752   65.8775 O   0  0  0  0  0  0  0  0  0  0  0  0
  -47.7200   56.0792   66.0153 H   0  0  0  0  0  0  0  0  0  0  0  0
  6  7  1  0  0  0
  7  9  2  0  0  0
  7  8  1  0  0  0
  9  5  1  0  0  0
  5  4  1  0  0  0
  4  1  1  0  0  0
  1  3  2  0  0  0
  1  2  1  0  0  0
  3 10  1  0  0  0
 10 11  1  0  0  0
 11 12  1  0  0  0
 12 13  1  0  0  0
 12 14  2  0  0  0
 14 15  1  0  0  0
 15 16  1  0  0  0
 16 17  1  0  0  0
M  END
> <minimizedAffinity>
-7.47421

$$$$



 17 16  0  0  0  0  0  0  0  0999 V2000
  -48.7901   59.4304   64.7957 C   0  0  0  0  0  0  0  0  0  0  0  0
  -47.9430   60.6698   64.6634 C   0  0  0  0  0  0  0  0  0  0  0  0
  -48.2284   58.2469   64.7607 C   0  0  0  0  0  0  0  0  0  0  0  0
  -50.2822   59.5519   64.9702 C   0  0  0  0  0  0  0  0  0  0  0  0
  -50.9070   60.0733   63.6750 C   0  0  0  0  0  0  0  0  0  0  0  0
  -49.5049   60.5182   61.2731 C   0  0  0  0  0  0  0  0  0  0  0  0
  -50.2031   59.2035   61.5048 C   0  0  0  0  0  0  0  0  0  0  0  0
  -50.1506   58.1265   60.4518 C   0  0  0  0  0  0  0  0  0  0  0  0
  -50.8546   58.9970   62.6227 C   0  0  0  0  0  0  0  0  0  0  0  0
  -46.7565   58.1196   64.4644 C   0  0  0  0  0  0  0  0  0  0  0  0
  -46.0257   57.6255   65.7141 C   0  0  0  0  0  0  0  0  0  0  0  0
  -44.5951   58.0975   65.6790 C   0  0  0  0  0  0  0  0  0  0  0  0
  -43.4700   57.0972   65.7313 C   0  0  0  0  0  0  0  0  0  0  0  0
  -44.3297   59.3786   65.6029 C   0  0  0  0  0  0  0  0  0  0  0  0
  -42.8991   59.8507   65.5678 C   0  0  0  0  0  0  0  0  0  0  0  0
  -42.5718   60.2798   64.2452 O   0  0  0  0  0  0  0  0  0  0  0  0
  -42.6834   59.5397   63.6282 H   0  0  0  0  0  0  0  0  0  0  0  0
  6  7  1  0  0  0
  7  9  2  0  0  0
  7  8  1  0  0  0
  9  5  1  0  0  0
  5  4  1  0  0  0
  4  1  1  0  0  0
  1  3  2  0  0  0
  1  2  1  0  0  0
  3 10  1  0  0  0
 10 11  1  0  0  0
 11 12  1  0  0  0
 12 13  1  0  0  0
 12 14  2  0  0  0
 14 15  1  0  0  0
 15 16  1  0  0  0
 16 17  1  0  0  0
M  END
> <minimizedAffinity>
-7.43908

$$$$



 17 16  0  0  0  0  0  0  0  0999 V2000
  -40.5108   61.0220   63.3903 C   0  0  0  0  0  0  0  0  0  0  0  0
  -41.7375   61.8545   63.1195 C   0  0  0  0  0  0  0  0  0  0  0  0
  -40.3443   60.4644   64.5644 C   0  0  0  0  0  0  0  0  0  0  0  0
  -39.4769   60.8292   62.3107 C   0  0  0  0  0  0  0  0  0  0  0  0
  -38.1884   60.2842   62.9291 C   0  0  0  0  0  0  0  0  0  0  0  0
  -38.3536   57.5866   63.7218 C   0  0  0  0  0  0  0  0  0  0  0  0
  -37.7004   57.9481   62.4133 C   0  0  0  0  0  0  0  0  0  0  0  0
  -37.1361   56.8663   61.5285 C   0  0  0  0  0  0  0  0  0  0  0  0
  -37.6245   59.2032   62.0449 C   0  0  0  0  0  0  0  0  0  0  0  0
  -41.3130   60.7556   65.6813 C   0  0  0  0  0  0  0  0  0  0  0  0
  -41.6354   59.4597   66.4274 C   0  0  0  0  0  0  0  0  0  0  0  0
  -42.8434   58.8088   65.8046 C   0  0  0  0  0  0  0  0  0  0  0  0
  -43.9212   59.6586   65.1839 C   0  0  0  0  0  0  0  0  0  0  0  0
  -42.9563   57.5032   65.8032 C   0  0  0  0  0  0  0  0  0  0  0  0
  -44.1643   56.8523   65.1805 C   0  0  0  0  0  0  0  0  0  0  0  0
  -45.1063   56.5211   66.2020 O   0  0  0  0  0  0  0  0  0  0  0  0
  -44.6972   55.9076   66.8324 H   0  0  0  0  0  0  0  0  0  0  0  0
  6  7  1  0  0  0
  7  9  2  0  0  0
  7  8  1  0  0  0
  9  5  1  0  0  0
  5  4  1  0  0  0
  4  1  1  0  0  0
  1  3  2  0  0  0
  1  2  1  0  0  0
  3 10  1  0  0  0
 10 11  1  0  0  0
 11 12  1  0  0  0
 12 13  1  0  0  0
 12 14  2  0  0  0
 14 15  1  0  0  0
 15 16  1  0  0  0
 16 17  1  0  0  0
M  END
> <minimizedAffinity>
-7.41491

$$$$
