


 37 36  0  0  0  0  0  0  0  0999 V2000
  -42.9842   57.1177   66.5357 O   0  0  0  0  0  0  0  0  0  0  0  0
  -43.3910   57.6451   65.5302 C   0  0  0  0  0  0  0  0  0  0  0  0
  -42.6040   58.1504   64.5758 O   0  0  0  0  0  0  0  0  0  0  0  0
  -41.5082   57.3358   64.1041 C   0  0  0  0  0  0  0  0  0  0  0  0
  -41.5957   57.0901   62.6127 C   0  0  0  0  0  0  0  0  0  0  0  0
  -42.5203   57.9952   61.9945 O   0  0  0  0  0  0  0  0  0  0  0  0
  -42.2019   58.9053   62.1008 H   0  0  0  0  0  0  0  0  0  0  0  0
  -40.2535   57.1968   61.9275 C   0  0  0  0  0  0  0  0  0  0  0  0
  -39.7067   58.5346   62.0201 O   0  0  0  0  0  0  0  0  0  0  0  0
  -39.1793   59.5654   60.9086 P   0  0  0  0  0  0  0  0  0  0  0  0
  -40.3874   60.2919   60.3198 O   0  0  0  0  0  0  0  0  0  0  0  0
  -38.5179   58.8005   59.8289 O   0  0  0  0  0  0  0  0  0  0  0  0
  -39.1405   58.1525   59.4637 H   0  0  0  0  0  0  0  0  0  0  0  0
  -38.1559   60.6779   61.5568 O   0  0  0  0  0  0  0  0  0  0  0  0
  -38.2422   61.2381   62.8953 C   0  0  0  0  0  0  0  0  0  0  0  0
  -37.5226   60.3499   63.8798 C   0  0  0  0  0  0  0  0  0  0  0  0
  -38.2867   59.9724   65.1353 N   0  0  0  0  0  0  0  0  0  0  0  0
  -38.1596   58.5075   65.4054 C   0  0  0  0  0  0  0  0  0  0  0  0
  -39.7286   60.3059   64.9349 C   0  0  0  0  0  0  0  0  0  0  0  0
  -37.7605   60.7314   66.3201 C   0  0  0  0  0  0  0  0  0  0  0  0
  -44.8334   57.8408   65.1769 C   0  0  0  0  0  0  0  0  0  0  0  0
  -45.0498   58.9066   64.1092 C   0  0  0  0  0  0  0  0  0  0  0  0
  -45.7442   60.1613   64.6103 C   0  0  0  0  0  0  0  0  0  0  0  0
  -47.2411   60.1666   64.3548 C   0  0  0  0  0  0  0  0  0  0  0  0
  -48.0599   60.0746   65.6310 C   0  0  0  0  0  0  0  0  0  0  0  0
  -48.6456   58.6954   65.8366 C   0  0  0  0  0  0  0  0  0  0  0  0
  -50.0783   58.5380   65.3692 C   0  0  0  0  0  0  0  0  0  0  0  0
  -50.6978   59.7943   64.8894 C   0  0  0  0  0  0  0  0  0  0  0  0
  -51.1609   60.0170   63.6767 C   0  0  0  0  0  0  0  0  0  0  0  0
  -51.2042   59.0534   62.5355 C   0  0  0  0  0  0  0  0  0  0  0  0
  -49.8312   58.9668   61.8671 C   0  0  0  0  0  0  0  0  0  0  0  0
  -49.8390   59.0523   60.3478 C   0  0  0  0  0  0  0  0  0  0  0  0
  -50.0781   57.7298   59.6294 C   0  0  0  0  0  0  0  0  0  0  0  0
  -49.3102   56.5597   60.2355 C   0  0  0  0  0  0  0  0  0  0  0  0
  -48.1382   56.0915   59.3876 C   0  0  0  0  0  0  0  0  0  0  0  0
  -48.0484   56.7114   58.0012 C   0  0  0  0  0  0  0  0  0  0  0  0
  -46.9868   56.0820   57.1524 C   0  0  0  0  0  0  0  0  0  0  0  0
 17 16  1  0  0  0
 17 18  1  0  0  0
 17 19  1  0  0  0
 17 20  1  0  0  0
  5  6  1  0  0  0
  5  8  1  0  0  0
  5  4  1  0  0  0
 10  9  1  0  0  0
 10 11  2  0  0  0
 10 14  1  0  0  0
 10 12  1  0  0  0
  8  9  1  0  0  0
 15 16  1  0  0  0
 15 14  1  0  0  0
  3  4  1  0  0  0
  3  2  1  0  0  0
  1  2  2  0  0  0
  2 21  1  0  0  0
 21 22  1  0  0  0
 22 23  1  0  0  0
 23 24  1  0  0  0
 24 25  1  0  0  0
 25 26  1  0  0  0
 26 27  1  0  0  0
 27 28  1  0  0  0
 28 29  2  0  0  0
 29 30  1  0  0  0
 30 31  1  0  0  0
 31 32  1  0  0  0
 32 33  1  0  0  0
 33 34  1  0  0  0
 34 35  1  0  0  0
 35 36  1  0  0  0
 36 37  1  0  0  0
  6  7  1  0  0  0
 12 13  1  0  0  0
M  CHG 1  11  -1
M  END
> <minimizedAffinity>
-8.08173

$$$$



 37 36  0  0  0  0  0  0  0  0999 V2000
  -42.7676   56.4511   64.9199 O   0  0  0  0  0  0  0  0  0  0  0  0
  -43.5542   57.0708   65.5921 C   0  0  0  0  0  0  0  0  0  0  0  0
  -43.3106   57.4924   66.8365 O   0  0  0  0  0  0  0  0  0  0  0  0
  -42.1651   58.3472   67.0464 C   0  0  0  0  0  0  0  0  0  0  0  0
  -42.4914   59.7987   66.7652 C   0  0  0  0  0  0  0  0  0  0  0  0
  -42.4795   60.5729   67.9722 O   0  0  0  0  0  0  0  0  0  0  0  0
  -41.5873   60.5647   68.3528 H   0  0  0  0  0  0  0  0  0  0  0  0
  -41.5507   60.4205   65.7599 C   0  0  0  0  0  0  0  0  0  0  0  0
  -40.1755   60.3788   66.2120 O   0  0  0  0  0  0  0  0  0  0  0  0
  -38.7793   60.3359   65.4216 P   0  0  0  0  0  0  0  0  0  0  0  0
  -38.0612   59.0390   65.7911 O   0  0  0  0  0  0  0  0  0  0  0  0
  -37.9485   61.4767   65.8650 O   0  0  0  0  0  0  0  0  0  0  0  0
  -37.8282   61.4345   66.8266 H   0  0  0  0  0  0  0  0  0  0  0  0
  -39.0082   60.3695   63.7932 O   0  0  0  0  0  0  0  0  0  0  0  0
  -38.3008   59.5591   62.8157 C   0  0  0  0  0  0  0  0  0  0  0  0
  -39.1677   59.3307   61.6022 C   0  0  0  0  0  0  0  0  0  0  0  0
  -40.1404   58.1682   61.6742 N   0  0  0  0  0  0  0  0  0  0  0  0
  -39.5819   57.0694   62.5203 C   0  0  0  0  0  0  0  0  0  0  0  0
  -40.3672   57.6493   60.2922 C   0  0  0  0  0  0  0  0  0  0  0  0
  -41.4502   58.6131   62.2598 C   0  0  0  0  0  0  0  0  0  0  0  0
  -44.9356   57.4646   65.1673 C   0  0  0  0  0  0  0  0  0  0  0  0
  -44.9519   58.6357   64.1922 C   0  0  0  0  0  0  0  0  0  0  0  0
  -45.4797   59.9325   64.7815 C   0  0  0  0  0  0  0  0  0  0  0  0
  -46.8882   60.2735   64.3275 C   0  0  0  0  0  0  0  0  0  0  0  0
  -47.8355   60.5384   65.4850 C   0  0  0  0  0  0  0  0  0  0  0  0
  -47.9983   59.3294   66.3791 C   0  0  0  0  0  0  0  0  0  0  0  0
  -48.8145   58.2021   65.7801 C   0  0  0  0  0  0  0  0  0  0  0  0
  -50.1444   58.6195   65.2806 C   0  0  0  0  0  0  0  0  0  0  0  0
  -50.5059   58.7073   64.0171 C   0  0  0  0  0  0  0  0  0  0  0  0
  -49.6822   58.3712   62.8167 C   0  0  0  0  0  0  0  0  0  0  0  0
  -50.4190   58.7816   61.5407 C   0  0  0  0  0  0  0  0  0  0  0  0
  -50.8519   57.6341   60.6400 C   0  0  0  0  0  0  0  0  0  0  0  0
  -49.7816   56.5812   60.3786 C   0  0  0  0  0  0  0  0  0  0  0  0
  -48.8555   56.9290   59.2179 C   0  0  0  0  0  0  0  0  0  0  0  0
  -47.6824   55.9742   59.0631 C   0  0  0  0  0  0  0  0  0  0  0  0
  -47.0527   55.9349   57.6788 C   0  0  0  0  0  0  0  0  0  0  0  0
  -47.3841   57.1423   56.8567 C   0  0  0  0  0  0  0  0  0  0  0  0
 17 16  1  0  0  0
 17 18  1  0  0  0
 17 19  1  0  0  0
 17 20  1  0  0  0
  5  6  1  0  0  0
  5  8  1  0  0  0
  5  4  1  0  0  0
 10  9  1  0  0  0
 10 11  2  0  0  0
 10 14  1  0  0  0
 10 12  1  0  0  0
  8  9  1  0  0  0
 15 16  1  0  0  0
 15 14  1  0  0  0
  3  4  1  0  0  0
  3  2  1  0  0  0
  1  2  2  0  0  0
  2 21  1  0  0  0
 21 22  1  0  0  0
 22 23  1  0  0  0
 23 24  1  0  0  0
 24 25  1  0  0  0
 25 26  1  0  0  0
 26 27  1  0  0  0
 27 28  1  0  0  0
 28 29  2  0  0  0
 29 30  1  0  0  0
 30 31  1  0  0  0
 31 32  1  0  0  0
 32 33  1  0  0  0
 33 34  1  0  0  0
 34 35  1  0  0  0
 35 36  1  0  0  0
 36 37  1  0  0  0
  6  7  1  0  0  0
 12 13  1  0  0  0
M  CHG 1  11  -1
M  END
> <minimizedAffinity>
-8.06151

$$$$



 37 36  0  0  0  0  0  0  0  0999 V2000
  -42.5835   56.0719   65.3700 O   0  0  0  0  0  0  0  0  0  0  0  0
  -43.1183   57.0992   65.7068 C   0  0  0  0  0  0  0  0  0  0  0  0
  -42.5031   58.0853   66.3662 O   0  0  0  0  0  0  0  0  0  0  0  0
  -41.3433   58.6871   65.7502 C   0  0  0  0  0  0  0  0  0  0  0  0
  -41.5719   60.1509   65.4384 C   0  0  0  0  0  0  0  0  0  0  0  0
  -40.9735   60.9899   66.4356 O   0  0  0  0  0  0  0  0  0  0  0  0
  -40.0123   60.8595   66.4335 H   0  0  0  0  0  0  0  0  0  0  0  0
  -41.0521   60.5418   64.0748 C   0  0  0  0  0  0  0  0  0  0  0  0
  -39.7770   61.2232   64.1599 O   0  0  0  0  0  0  0  0  0  0  0  0
  -38.3478   60.9281   63.4921 P   0  0  0  0  0  0  0  0  0  0  0  0
  -37.8799   59.5494   63.9552 O   0  0  0  0  0  0  0  0  0  0  0  0
  -37.3817   61.9394   63.9741 O   0  0  0  0  0  0  0  0  0  0  0  0
  -37.3465   61.9168   64.9432 H   0  0  0  0  0  0  0  0  0  0  0  0
  -38.4381   60.9331   61.8498 O   0  0  0  0  0  0  0  0  0  0  0  0
  -38.5540   59.7606   60.9986 C   0  0  0  0  0  0  0  0  0  0  0  0
  -39.9985   59.3409   60.8828 C   0  0  0  0  0  0  0  0  0  0  0  0
  -40.2955   57.8690   61.1017 N   0  0  0  0  0  0  0  0  0  0  0  0
  -40.6270   57.2030   59.8049 C   0  0  0  0  0  0  0  0  0  0  0  0
  -41.4657   57.7498   62.0218 C   0  0  0  0  0  0  0  0  0  0  0  0
  -39.1099   57.1777   61.7125 C   0  0  0  0  0  0  0  0  0  0  0  0
  -44.5545   57.4486   65.4640 C   0  0  0  0  0  0  0  0  0  0  0  0
  -44.7601   58.3128   64.2256 C   0  0  0  0  0  0  0  0  0  0  0  0
  -45.0755   59.7684   64.5245 C   0  0  0  0  0  0  0  0  0  0  0  0
  -46.5631   60.0557   64.6270 C   0  0  0  0  0  0  0  0  0  0  0  0
  -47.0662   60.0691   66.0602 C   0  0  0  0  0  0  0  0  0  0  0  0
  -47.8443   58.8188   66.4051 C   0  0  0  0  0  0  0  0  0  0  0  0
  -48.8736   58.4066   65.3723 C   0  0  0  0  0  0  0  0  0  0  0  0
  -50.1998   59.0385   65.5568 C   0  0  0  0  0  0  0  0  0  0  0  0
  -50.8378   59.7756   64.6711 C   0  0  0  0  0  0  0  0  0  0  0  0
  -50.3946   60.1041   63.2825 C   0  0  0  0  0  0  0  0  0  0  0  0
  -50.9467   59.0739   62.2959 C   0  0  0  0  0  0  0  0  0  0  0  0
  -50.0292   58.7289   61.1319 C   0  0  0  0  0  0  0  0  0  0  0  0
  -49.2256   57.4456   61.3035 C   0  0  0  0  0  0  0  0  0  0  0  0
  -49.4527   56.4308   60.1878 C   0  0  0  0  0  0  0  0  0  0  0  0
  -48.2857   56.3127   59.2205 C   0  0  0  0  0  0  0  0  0  0  0  0
  -48.3003   57.2952   58.0590 C   0  0  0  0  0  0  0  0  0  0  0  0
  -47.8485   56.6775   56.7715 C   0  0  0  0  0  0  0  0  0  0  0  0
 17 16  1  0  0  0
 17 18  1  0  0  0
 17 19  1  0  0  0
 17 20  1  0  0  0
  5  6  1  0  0  0
  5  8  1  0  0  0
  5  4  1  0  0  0
 10  9  1  0  0  0
 10 11  2  0  0  0
 10 14  1  0  0  0
 10 12  1  0  0  0
  8  9  1  0  0  0
 15 16  1  0  0  0
 15 14  1  0  0  0
  3  4  1  0  0  0
  3  2  1  0  0  0
  1  2  2  0  0  0
  2 21  1  0  0  0
 21 22  1  0  0  0
 22 23  1  0  0  0
 23 24  1  0  0  0
 24 25  1  0  0  0
 25 26  1  0  0  0
 26 27  1  0  0  0
 27 28  1  0  0  0
 28 29  2  0  0  0
 29 30  1  0  0  0
 30 31  1  0  0  0
 31 32  1  0  0  0
 32 33  1  0  0  0
 33 34  1  0  0  0
 34 35  1  0  0  0
 35 36  1  0  0  0
 36 37  1  0  0  0
  6  7  1  0  0  0
 12 13  1  0  0  0
M  CHG 1  11  -1
M  END
> <minimizedAffinity>
-8.04001

$$$$



 37 36  0  0  0  0  0  0  0  0999 V2000
  -41.3989   60.8951   64.6759 O   0  0  0  0  0  0  0  0  0  0  0  0
  -40.8458   60.3774   65.6143 C   0  0  0  0  0  0  0  0  0  0  0  0
  -39.7538   60.8687   66.2074 O   0  0  0  0  0  0  0  0  0  0  0  0
  -38.5051   60.1713   66.0047 C   0  0  0  0  0  0  0  0  0  0  0  0
  -37.3412   61.1320   65.8840 C   0  0  0  0  0  0  0  0  0  0  0  0
  -36.8969   61.5683   67.1758 O   0  0  0  0  0  0  0  0  0  0  0  0
  -36.5684   60.8068   67.6789 H   0  0  0  0  0  0  0  0  0  0  0  0
  -36.1766   60.5401   65.1253 C   0  0  0  0  0  0  0  0  0  0  0  0
  -36.2745   59.0985   65.0279 O   0  0  0  0  0  0  0  0  0  0  0  0
  -36.2062   58.0930   63.7787 P   0  0  0  0  0  0  0  0  0  0  0  0
  -35.1207   57.0553   64.0599 O   0  0  0  0  0  0  0  0  0  0  0  0
  -35.8229   58.8602   62.5734 O   0  0  0  0  0  0  0  0  0  0  0  0
  -34.9775   59.3089   62.7311 H   0  0  0  0  0  0  0  0  0  0  0  0
  -37.6376   57.3150   63.5534 O   0  0  0  0  0  0  0  0  0  0  0  0
  -38.5136   57.4573   62.4021 C   0  0  0  0  0  0  0  0  0  0  0  0
  -39.4815   58.5938   62.6207 C   0  0  0  0  0  0  0  0  0  0  0  0
  -39.3642   59.7745   61.6747 N   0  0  0  0  0  0  0  0  0  0  0  0
  -38.7282   60.9379   62.3654 C   0  0  0  0  0  0  0  0  0  0  0  0
  -40.7342   60.1654   61.2269 C   0  0  0  0  0  0  0  0  0  0  0  0
  -38.5346   59.4090   60.4769 C   0  0  0  0  0  0  0  0  0  0  0  0
  -41.2668   59.0982   66.2704 C   0  0  0  0  0  0  0  0  0  0  0  0
  -42.5200   59.2468   67.1247 C   0  0  0  0  0  0  0  0  0  0  0  0
  -43.7421   58.5346   66.5710 C   0  0  0  0  0  0  0  0  0  0  0  0
  -44.9778   59.4149   66.5080 C   0  0  0  0  0  0  0  0  0  0  0  0
  -45.3725   59.7805   65.0874 C   0  0  0  0  0  0  0  0  0  0  0  0
  -46.8341   60.1538   64.9778 C   0  0  0  0  0  0  0  0  0  0  0  0
  -47.6704   59.8085   66.1932 C   0  0  0  0  0  0  0  0  0  0  0  0
  -48.4972   58.5911   66.0305 C   0  0  0  0  0  0  0  0  0  0  0  0
  -49.7230   58.5444   65.5509 C   0  0  0  0  0  0  0  0  0  0  0  0
  -50.5332   59.6869   65.0305 C   0  0  0  0  0  0  0  0  0  0  0  0
  -50.2700   59.8817   63.5364 C   0  0  0  0  0  0  0  0  0  0  0  0
  -51.3436   59.3328   62.6082 C   0  0  0  0  0  0  0  0  0  0  0  0
  -50.9803   58.0329   61.9006 C   0  0  0  0  0  0  0  0  0  0  0  0
  -49.6531   58.0974   61.1518 C   0  0  0  0  0  0  0  0  0  0  0  0
  -49.7626   57.7347   59.6793 C   0  0  0  0  0  0  0  0  0  0  0  0
  -48.6531   56.8420   59.1441 C   0  0  0  0  0  0  0  0  0  0  0  0
  -48.1673   57.2681   57.7928 C   0  0  0  0  0  0  0  0  0  0  0  0
 17 16  1  0  0  0
 17 18  1  0  0  0
 17 19  1  0  0  0
 17 20  1  0  0  0
  5  6  1  0  0  0
  5  8  1  0  0  0
  5  4  1  0  0  0
 10  9  1  0  0  0
 10 11  2  0  0  0
 10 14  1  0  0  0
 10 12  1  0  0  0
  8  9  1  0  0  0
 15 16  1  0  0  0
 15 14  1  0  0  0
  3  4  1  0  0  0
  3  2  1  0  0  0
  1  2  2  0  0  0
  2 21  1  0  0  0
 21 22  1  0  0  0
 22 23  1  0  0  0
 23 24  1  0  0  0
 24 25  1  0  0  0
 25 26  1  0  0  0
 26 27  1  0  0  0
 27 28  1  0  0  0
 28 29  2  0  0  0
 29 30  1  0  0  0
 30 31  1  0  0  0
 31 32  1  0  0  0
 32 33  1  0  0  0
 33 34  1  0  0  0
 34 35  1  0  0  0
 35 36  1  0  0  0
 36 37  1  0  0  0
  6  7  1  0  0  0
 12 13  1  0  0  0
M  CHG 1  11  -1
M  END
> <minimizedAffinity>
-8.00985

$$$$



 37 36  0  0  0  0  0  0  0  0999 V2000
  -44.4116   58.2215   63.8665 O   0  0  0  0  0  0  0  0  0  0  0  0
  -44.1800   59.2404   64.4689 C   0  0  0  0  0  0  0  0  0  0  0  0
  -43.8345   60.3938   63.8893 O   0  0  0  0  0  0  0  0  0  0  0  0
  -42.9778   60.3345   62.7278 C   0  0  0  0  0  0  0  0  0  0  0  0
  -41.6155   60.9335   63.0065 C   0  0  0  0  0  0  0  0  0  0  0  0
  -41.4709   61.2615   64.3950 O   0  0  0  0  0  0  0  0  0  0  0  0
  -41.5243   60.4514   64.9258 H   0  0  0  0  0  0  0  0  0  0  0  0
  -40.4848   60.0249   62.5843 C   0  0  0  0  0  0  0  0  0  0  0  0
  -39.2708   60.7666   62.3133 O   0  0  0  0  0  0  0  0  0  0  0  0
  -38.0172   61.1607   63.2348 P   0  0  0  0  0  0  0  0  0  0  0  0
  -36.9574   60.0698   63.0912 O   0  0  0  0  0  0  0  0  0  0  0  0
  -38.4609   61.2031   64.6453 O   0  0  0  0  0  0  0  0  0  0  0  0
  -38.8422   60.3455   64.8903 H   0  0  0  0  0  0  0  0  0  0  0  0
  -37.3629   62.5988   62.7778 O   0  0  0  0  0  0  0  0  0  0  0  0
  -36.7385   63.5705   63.6604 C   0  0  0  0  0  0  0  0  0  0  0  0
  -35.2943   63.7735   63.2741 C   0  0  0  0  0  0  0  0  0  0  0  0
  -34.2573   63.4345   64.3288 N   0  0  0  0  0  0  0  0  0  0  0  0
  -32.9271   63.1839   63.6940 C   0  0  0  0  0  0  0  0  0  0  0  0
  -34.6929   62.1996   65.0469 C   0  0  0  0  0  0  0  0  0  0  0  0
  -34.1202   64.5605   65.3135 C   0  0  0  0  0  0  0  0  0  0  0  0
  -44.2226   59.3954   65.9582 C   0  0  0  0  0  0  0  0  0  0  0  0
  -45.6318   59.6066   66.4988 C   0  0  0  0  0  0  0  0  0  0  0  0
  -46.1893   58.4227   67.2702 C   0  0  0  0  0  0  0  0  0  0  0  0
  -47.0818   57.5226   66.4339 C   0  0  0  0  0  0  0  0  0  0  0  0
  -47.9544   58.2947   65.4593 C   0  0  0  0  0  0  0  0  0  0  0  0
  -49.4191   57.9456   65.6026 C   0  0  0  0  0  0  0  0  0  0  0  0
  -50.3579   59.1349   65.6047 C   0  0  0  0  0  0  0  0  0  0  0  0
  -50.0307   60.1635   64.5912 C   0  0  0  0  0  0  0  0  0  0  0  0
  -50.3655   60.1318   63.3178 C   0  0  0  0  0  0  0  0  0  0  0  0
  -51.1757   59.0863   62.6228 C   0  0  0  0  0  0  0  0  0  0  0  0
  -50.2552   58.0452   61.9838 C   0  0  0  0  0  0  0  0  0  0  0  0
  -50.8051   57.3653   60.7385 C   0  0  0  0  0  0  0  0  0  0  0  0
  -50.4141   58.0220   59.4201 C   0  0  0  0  0  0  0  0  0  0  0  0
  -48.9508   57.8116   59.0451 C   0  0  0  0  0  0  0  0  0  0  0  0
  -48.4493   56.3998   59.3041 C   0  0  0  0  0  0  0  0  0  0  0  0
  -47.5268   55.8301   58.2368 C   0  0  0  0  0  0  0  0  0  0  0  0
  -47.3998   56.7252   57.0425 C   0  0  0  0  0  0  0  0  0  0  0  0
 17 16  1  0  0  0
 17 18  1  0  0  0
 17 19  1  0  0  0
 17 20  1  0  0  0
  5  6  1  0  0  0
  5  8  1  0  0  0
  5  4  1  0  0  0
 10  9  1  0  0  0
 10 11  2  0  0  0
 10 14  1  0  0  0
 10 12  1  0  0  0
  8  9  1  0  0  0
 15 16  1  0  0  0
 15 14  1  0  0  0
  3  4  1  0  0  0
  3  2  1  0  0  0
  1  2  2  0  0  0
  2 21  1  0  0  0
 21 22  1  0  0  0
 22 23  1  0  0  0
 23 24  1  0  0  0
 24 25  1  0  0  0
 25 26  1  0  0  0
 26 27  1  0  0  0
 27 28  1  0  0  0
 28 29  2  0  0  0
 29 30  1  0  0  0
 30 31  1  0  0  0
 31 32  1  0  0  0
 32 33  1  0  0  0
 33 34  1  0  0  0
 34 35  1  0  0  0
 35 36  1  0  0  0
 36 37  1  0  0  0
  6  7  1  0  0  0
 12 13  1  0  0  0
M  CHG 1  11  -1
M  END
> <minimizedAffinity>
-7.96161

$$$$



 37 36  0  0  0  0  0  0  0  0999 V2000
  -42.0608   55.7231   64.8953 O   0  0  0  0  0  0  0  0  0  0  0  0
  -42.4051   56.8277   65.2358 C   0  0  0  0  0  0  0  0  0  0  0  0
  -41.7659   57.9515   64.8979 O   0  0  0  0  0  0  0  0  0  0  0  0
  -41.1782   58.7376   65.9579 C   0  0  0  0  0  0  0  0  0  0  0  0
  -41.1858   60.2153   65.6284 C   0  0  0  0  0  0  0  0  0  0  0  0
  -39.9040   60.8064   65.8812 O   0  0  0  0  0  0  0  0  0  0  0  0
  -39.2413   60.4026   65.2992 H   0  0  0  0  0  0  0  0  0  0  0  0
  -41.5925   60.4889   64.1994 C   0  0  0  0  0  0  0  0  0  0  0  0
  -40.4426   60.6591   63.3356 O   0  0  0  0  0  0  0  0  0  0  0  0
  -39.4682   59.6072   62.6145 P   0  0  0  0  0  0  0  0  0  0  0  0
  -38.9273   60.2535   61.3402 O   0  0  0  0  0  0  0  0  0  0  0  0
  -40.2555   58.4126   62.2386 O   0  0  0  0  0  0  0  0  0  0  0  0
  -40.9951   58.6785   61.6700 H   0  0  0  0  0  0  0  0  0  0  0  0
  -38.2014   59.1997   63.5810 O   0  0  0  0  0  0  0  0  0  0  0  0
  -36.8679   59.7758   63.5273 C   0  0  0  0  0  0  0  0  0  0  0  0
  -36.5821   60.5480   64.7915 C   0  0  0  0  0  0  0  0  0  0  0  0
  -36.2621   62.0221   64.6267 N   0  0  0  0  0  0  0  0  0  0  0  0
  -34.8397   62.2053   64.2043 C   0  0  0  0  0  0  0  0  0  0  0  0
  -36.4709   62.7055   65.9381 C   0  0  0  0  0  0  0  0  0  0  0  0
  -37.1585   62.6433   63.5937 C   0  0  0  0  0  0  0  0  0  0  0  0
  -43.5884   57.1387   66.1001 C   0  0  0  0  0  0  0  0  0  0  0  0
  -44.5841   58.0824   65.4364 C   0  0  0  0  0  0  0  0  0  0  0  0
  -45.0447   59.2281   66.3212 C   0  0  0  0  0  0  0  0  0  0  0  0
  -46.2033   58.8605   67.2314 C   0  0  0  0  0  0  0  0  0  0  0  0
  -47.5577   59.1935   66.6296 C   0  0  0  0  0  0  0  0  0  0  0  0
  -47.5405   60.5017   65.8708 C   0  0  0  0  0  0  0  0  0  0  0  0
  -47.9577   60.3984   64.4178 C   0  0  0  0  0  0  0  0  0  0  0  0
  -47.9853   59.0134   63.8952 C   0  0  0  0  0  0  0  0  0  0  0  0
  -49.0621   58.3288   63.5688 C   0  0  0  0  0  0  0  0  0  0  0  0
  -50.4793   58.8003   63.6115 C   0  0  0  0  0  0  0  0  0  0  0  0
  -51.1012   58.7265   62.2160 C   0  0  0  0  0  0  0  0  0  0  0  0
  -50.1101   58.6646   61.0630 C   0  0  0  0  0  0  0  0  0  0  0  0
  -50.3025   57.4907   60.1104 C   0  0  0  0  0  0  0  0  0  0  0  0
  -49.2860   56.3714   60.3099 C   0  0  0  0  0  0  0  0  0  0  0  0
  -48.2102   56.3226   59.2365 C   0  0  0  0  0  0  0  0  0  0  0  0
  -48.4821   57.1703   58.0029 C   0  0  0  0  0  0  0  0  0  0  0  0
  -47.3609   57.1263   57.0107 C   0  0  0  0  0  0  0  0  0  0  0  0
 17 16  1  0  0  0
 17 18  1  0  0  0
 17 19  1  0  0  0
 17 20  1  0  0  0
  5  6  1  0  0  0
  5  8  1  0  0  0
  5  4  1  0  0  0
 10  9  1  0  0  0
 10 11  2  0  0  0
 10 14  1  0  0  0
 10 12  1  0  0  0
  8  9  1  0  0  0
 15 16  1  0  0  0
 15 14  1  0  0  0
  3  4  1  0  0  0
  3  2  1  0  0  0
  1  2  2  0  0  0
  2 21  1  0  0  0
 21 22  1  0  0  0
 22 23  1  0  0  0
 23 24  1  0  0  0
 24 25  1  0  0  0
 25 26  1  0  0  0
 26 27  1  0  0  0
 27 28  1  0  0  0
 28 29  2  0  0  0
 29 30  1  0  0  0
 30 31  1  0  0  0
 31 32  1  0  0  0
 32 33  1  0  0  0
 33 34  1  0  0  0
 34 35  1  0  0  0
 35 36  1  0  0  0
 36 37  1  0  0  0
  6  7  1  0  0  0
 12 13  1  0  0  0
M  CHG 1  11  -1
M  END
> <minimizedAffinity>
-7.92919

$$$$



 37 36  0  0  0  0  0  0  0  0999 V2000
  -41.3775   59.0040   66.8123 O   0  0  0  0  0  0  0  0  0  0  0  0
  -41.3082   59.8920   65.9991 C   0  0  0  0  0  0  0  0  0  0  0  0
  -40.2201   60.6402   65.7945 O   0  0  0  0  0  0  0  0  0  0  0  0
  -38.9377   59.9752   65.7805 C   0  0  0  0  0  0  0  0  0  0  0  0
  -37.8561   60.8585   65.1957 C   0  0  0  0  0  0  0  0  0  0  0  0
  -37.6065   61.9931   66.0365 O   0  0  0  0  0  0  0  0  0  0  0  0
  -37.2743   61.6915   66.8964 H   0  0  0  0  0  0  0  0  0  0  0  0
  -36.5631   60.1136   64.9599 C   0  0  0  0  0  0  0  0  0  0  0  0
  -36.4465   59.6579   63.5902 O   0  0  0  0  0  0  0  0  0  0  0  0
  -36.5785   58.2055   62.9200 P   0  0  0  0  0  0  0  0  0  0  0  0
  -37.6431   57.4215   63.6856 O   0  0  0  0  0  0  0  0  0  0  0  0
  -35.2852   57.5008   63.0576 O   0  0  0  0  0  0  0  0  0  0  0  0
  -35.0415   57.4524   63.9952 H   0  0  0  0  0  0  0  0  0  0  0  0
  -37.0296   58.3097   61.3418 O   0  0  0  0  0  0  0  0  0  0  0  0
  -38.2673   58.8878   60.8449 C   0  0  0  0  0  0  0  0  0  0  0  0
  -39.2694   57.7994   60.5496 C   0  0  0  0  0  0  0  0  0  0  0  0
  -40.5710   57.8481   61.3282 N   0  0  0  0  0  0  0  0  0  0  0  0
  -40.8382   56.5319   61.9849 C   0  0  0  0  0  0  0  0  0  0  0  0
  -41.6837   58.1520   60.3794 C   0  0  0  0  0  0  0  0  0  0  0  0
  -40.5130   58.9143   62.3848 C   0  0  0  0  0  0  0  0  0  0  0  0
  -42.4182   60.3236   65.0906 C   0  0  0  0  0  0  0  0  0  0  0  0
  -43.7731   59.7470   65.4836 C   0  0  0  0  0  0  0  0  0  0  0  0
  -44.9054   60.1119   64.5391 C   0  0  0  0  0  0  0  0  0  0  0  0
  -46.2791   59.7441   65.0718 C   0  0  0  0  0  0  0  0  0  0  0  0
  -46.2186   58.9208   66.3470 C   0  0  0  0  0  0  0  0  0  0  0  0
  -47.1947   57.7657   66.3289 C   0  0  0  0  0  0  0  0  0  0  0  0
  -48.2692   57.8590   65.2646 C   0  0  0  0  0  0  0  0  0  0  0  0
  -49.6074   58.2161   65.7881 C   0  0  0  0  0  0  0  0  0  0  0  0
  -50.4645   59.0435   65.2265 C   0  0  0  0  0  0  0  0  0  0  0  0
  -50.3025   59.7692   63.9305 C   0  0  0  0  0  0  0  0  0  0  0  0
  -51.0392   59.0259   62.8150 C   0  0  0  0  0  0  0  0  0  0  0  0
  -50.1881   58.0623   62.0010 C   0  0  0  0  0  0  0  0  0  0  0  0
  -50.8442   57.5406   60.7283 C   0  0  0  0  0  0  0  0  0  0  0  0
  -50.0764   57.8930   59.4586 C   0  0  0  0  0  0  0  0  0  0  0  0
  -48.8947   56.9767   59.1833 C   0  0  0  0  0  0  0  0  0  0  0  0
  -48.2235   57.1674   57.8314 C   0  0  0  0  0  0  0  0  0  0  0  0
  -47.1200   56.1842   57.5883 C   0  0  0  0  0  0  0  0  0  0  0  0
 17 16  1  0  0  0
 17 18  1  0  0  0
 17 19  1  0  0  0
 17 20  1  0  0  0
  5  6  1  0  0  0
  5  8  1  0  0  0
  5  4  1  0  0  0
 10  9  1  0  0  0
 10 11  2  0  0  0
 10 14  1  0  0  0
 10 12  1  0  0  0
  8  9  1  0  0  0
 15 16  1  0  0  0
 15 14  1  0  0  0
  3  4  1  0  0  0
  3  2  1  0  0  0
  1  2  2  0  0  0
  2 21  1  0  0  0
 21 22  1  0  0  0
 22 23  1  0  0  0
 23 24  1  0  0  0
 24 25  1  0  0  0
 25 26  1  0  0  0
 26 27  1  0  0  0
 27 28  1  0  0  0
 28 29  2  0  0  0
 29 30  1  0  0  0
 30 31  1  0  0  0
 31 32  1  0  0  0
 32 33  1  0  0  0
 33 34  1  0  0  0
 34 35  1  0  0  0
 35 36  1  0  0  0
 36 37  1  0  0  0
  6  7  1  0  0  0
 12 13  1  0  0  0
M  CHG 1  11  -1
M  END
> <minimizedAffinity>
-7.92803

$$$$



 37 36  0  0  0  0  0  0  0  0999 V2000
  -40.1590   58.7713   65.7849 O   0  0  0  0  0  0  0  0  0  0  0  0
  -40.3570   59.9267   66.0685 C   0  0  0  0  0  0  0  0  0  0  0  0
  -39.4009   60.8576   66.1384 O   0  0  0  0  0  0  0  0  0  0  0  0
  -38.0311   60.4106   66.2416 C   0  0  0  0  0  0  0  0  0  0  0  0
  -37.0713   61.4000   65.6154 C   0  0  0  0  0  0  0  0  0  0  0  0
  -35.9525   61.6489   66.4772 O   0  0  0  0  0  0  0  0  0  0  0  0
  -35.4516   60.8276   66.6021 H   0  0  0  0  0  0  0  0  0  0  0  0
  -36.5730   60.9483   64.2626 C   0  0  0  0  0  0  0  0  0  0  0  0
  -37.1477   59.6769   63.8743 O   0  0  0  0  0  0  0  0  0  0  0  0
  -36.4871   58.2720   63.4673 P   0  0  0  0  0  0  0  0  0  0  0  0
  -35.7819   57.7020   64.6969 O   0  0  0  0  0  0  0  0  0  0  0  0
  -35.4764   58.5112   62.4139 O   0  0  0  0  0  0  0  0  0  0  0  0
  -34.8187   59.1475   62.7354 H   0  0  0  0  0  0  0  0  0  0  0  0
  -37.6239   57.1962   62.9620 O   0  0  0  0  0  0  0  0  0  0  0  0
  -38.5862   57.4110   61.8939 C   0  0  0  0  0  0  0  0  0  0  0  0
  -39.7785   58.1764   62.4124 C   0  0  0  0  0  0  0  0  0  0  0  0
  -40.2458   59.3513   61.5734 N   0  0  0  0  0  0  0  0  0  0  0  0
  -39.1396   59.8402   60.6945 C   0  0  0  0  0  0  0  0  0  0  0  0
  -40.6627   60.4554   62.4886 C   0  0  0  0  0  0  0  0  0  0  0  0
  -41.4099   58.9530   60.7117 C   0  0  0  0  0  0  0  0  0  0  0  0
  -41.6907   60.5205   66.4038 C   0  0  0  0  0  0  0  0  0  0  0  0
  -42.4371   59.7465   67.4838 C   0  0  0  0  0  0  0  0  0  0  0  0
  -43.5972   58.9132   66.9669 C   0  0  0  0  0  0  0  0  0  0  0  0
  -43.2084   57.4877   66.6163 C   0  0  0  0  0  0  0  0  0  0  0  0
  -43.7380   57.0454   65.2630 C   0  0  0  0  0  0  0  0  0  0  0  0
  -43.0951   57.8021   64.1221 C   0  0  0  0  0  0  0  0  0  0  0  0
  -44.0633   58.5654   63.2412 C   0  0  0  0  0  0  0  0  0  0  0  0
  -44.4747   59.8767   63.7919 C   0  0  0  0  0  0  0  0  0  0  0  0
  -45.6965   60.2220   64.1422 C   0  0  0  0  0  0  0  0  0  0  0  0
  -46.9224   59.3686   64.1034 C   0  0  0  0  0  0  0  0  0  0  0  0
  -48.0187   59.9815   64.9763 C   0  0  0  0  0  0  0  0  0  0  0  0
  -48.9459   58.9839   65.6548 C   0  0  0  0  0  0  0  0  0  0  0  0
  -50.4317   59.2118   65.4044 C   0  0  0  0  0  0  0  0  0  0  0  0
  -50.7150   60.2031   64.2804 C   0  0  0  0  0  0  0  0  0  0  0  0
  -51.2579   59.5564   63.0160 C   0  0  0  0  0  0  0  0  0  0  0  0
  -50.2332   59.3093   61.9190 C   0  0  0  0  0  0  0  0  0  0  0  0
  -49.6851   57.9155   61.9411 C   0  0  0  0  0  0  0  0  0  0  0  0
 17 16  1  0  0  0
 17 18  1  0  0  0
 17 19  1  0  0  0
 17 20  1  0  0  0
  5  6  1  0  0  0
  5  8  1  0  0  0
  5  4  1  0  0  0
 10  9  1  0  0  0
 10 11  2  0  0  0
 10 14  1  0  0  0
 10 12  1  0  0  0
  8  9  1  0  0  0
 15 16  1  0  0  0
 15 14  1  0  0  0
  3  4  1  0  0  0
  3  2  1  0  0  0
  1  2  2  0  0  0
  2 21  1  0  0  0
 21 22  1  0  0  0
 22 23  1  0  0  0
 23 24  1  0  0  0
 24 25  1  0  0  0
 25 26  1  0  0  0
 26 27  1  0  0  0
 27 28  1  0  0  0
 28 29  2  0  0  0
 29 30  1  0  0  0
 30 31  1  0  0  0
 31 32  1  0  0  0
 32 33  1  0  0  0
 33 34  1  0  0  0
 34 35  1  0  0  0
 35 36  1  0  0  0
 36 37  1  0  0  0
  6  7  1  0  0  0
 12 13  1  0  0  0
M  CHG 1  11  -1
M  END
> <minimizedAffinity>
-7.89940

$$$$



 37 36  0  0  0  0  0  0  0  0999 V2000
  -40.3199   58.6999   65.7499 O   0  0  0  0  0  0  0  0  0  0  0  0
  -40.5118   59.8545   66.0411 C   0  0  0  0  0  0  0  0  0  0  0  0
  -39.5574   60.7891   66.0759 O   0  0  0  0  0  0  0  0  0  0  0  0
  -38.2307   60.3832   66.4784 C   0  0  0  0  0  0  0  0  0  0  0  0
  -37.1632   61.2388   65.8298 C   0  0  0  0  0  0  0  0  0  0  0  0
  -36.1635   61.6257   66.7823 O   0  0  0  0  0  0  0  0  0  0  0  0
  -35.7113   60.8349   67.1156 H   0  0  0  0  0  0  0  0  0  0  0  0
  -36.5019   60.5519   64.6579 C   0  0  0  0  0  0  0  0  0  0  0  0
  -37.4701   60.1153   63.6734 O   0  0  0  0  0  0  0  0  0  0  0  0
  -38.3011   60.9062   62.5509 P   0  0  0  0  0  0  0  0  0  0  0  0
  -37.7400   62.3237   62.4516 O   0  0  0  0  0  0  0  0  0  0  0  0
  -39.7149   60.9886   62.9782 O   0  0  0  0  0  0  0  0  0  0  0  0
  -39.7660   61.4198   63.8456 H   0  0  0  0  0  0  0  0  0  0  0  0
  -38.1695   60.1798   61.0812 O   0  0  0  0  0  0  0  0  0  0  0  0
  -38.5500   58.8122   60.7687 C   0  0  0  0  0  0  0  0  0  0  0  0
  -40.0527   58.6878   60.7170 C   0  0  0  0  0  0  0  0  0  0  0  0
  -40.6800   57.6676   61.6489 N   0  0  0  0  0  0  0  0  0  0  0  0
  -39.6453   57.0775   62.5524 C   0  0  0  0  0  0  0  0  0  0  0  0
  -41.2845   56.5777   60.8260 C   0  0  0  0  0  0  0  0  0  0  0  0
  -41.7484   58.3081   62.4884 C   0  0  0  0  0  0  0  0  0  0  0  0
  -41.8345   60.4429   66.4258 C   0  0  0  0  0  0  0  0  0  0  0  0
  -42.7242   59.4695   67.1897 C   0  0  0  0  0  0  0  0  0  0  0  0
  -43.8252   58.8408   66.3531 C   0  0  0  0  0  0  0  0  0  0  0  0
  -44.5448   59.8332   65.4569 C   0  0  0  0  0  0  0  0  0  0  0  0
  -45.4136   59.1615   64.4074 C   0  0  0  0  0  0  0  0  0  0  0  0
  -46.7538   58.7336   64.9627 C   0  0  0  0  0  0  0  0  0  0  0  0
  -47.8979   58.7857   63.9706 C   0  0  0  0  0  0  0  0  0  0  0  0
  -48.6364   60.0691   63.9683 C   0  0  0  0  0  0  0  0  0  0  0  0
  -49.8625   60.2577   63.5260 C   0  0  0  0  0  0  0  0  0  0  0  0
  -50.7909   59.2267   62.9712 C   0  0  0  0  0  0  0  0  0  0  0  0
  -50.5582   59.0627   61.4684 C   0  0  0  0  0  0  0  0  0  0  0  0
  -50.6107   57.6320   60.9528 C   0  0  0  0  0  0  0  0  0  0  0  0
  -49.2542   56.9591   60.7809 C   0  0  0  0  0  0  0  0  0  0  0  0
  -48.7562   56.9516   59.3393 C   0  0  0  0  0  0  0  0  0  0  0  0
  -47.6666   55.9252   59.0732 C   0  0  0  0  0  0  0  0  0  0  0  0
  -47.1322   55.8967   57.6491 C   0  0  0  0  0  0  0  0  0  0  0  0
  -47.5880   57.0687   56.8354 C   0  0  0  0  0  0  0  0  0  0  0  0
 17 16  1  0  0  0
 17 18  1  0  0  0
 17 19  1  0  0  0
 17 20  1  0  0  0
  5  6  1  0  0  0
  5  8  1  0  0  0
  5  4  1  0  0  0
 10  9  1  0  0  0
 10 11  2  0  0  0
 10 14  1  0  0  0
 10 12  1  0  0  0
  8  9  1  0  0  0
 15 16  1  0  0  0
 15 14  1  0  0  0
  3  4  1  0  0  0
  3  2  1  0  0  0
  1  2  2  0  0  0
  2 21  1  0  0  0
 21 22  1  0  0  0
 22 23  1  0  0  0
 23 24  1  0  0  0
 24 25  1  0  0  0
 25 26  1  0  0  0
 26 27  1  0  0  0
 27 28  1  0  0  0
 28 29  2  0  0  0
 29 30  1  0  0  0
 30 31  1  0  0  0
 31 32  1  0  0  0
 32 33  1  0  0  0
 33 34  1  0  0  0
 34 35  1  0  0  0
 35 36  1  0  0  0
 36 37  1  0  0  0
  6  7  1  0  0  0
 12 13  1  0  0  0
M  CHG 1  11  -1
M  END
> <minimizedAffinity>
-7.88816

$$$$
